<?xml version="1.0" encoding="UTF-8"?>

<!-- generated on Wed Dec 11 08:32:34 2019 by Eclipse SUMO netgenerate Version 1.2.0
<configuration xmlns:xsi="http://www.w3.org/2001/XMLSchema-instance" xsi:noNamespaceSchemaLocation="http://sumo.dlr.de/xsd/netgenerateConfiguration.xsd">

    <grid_network>
        <grid value="true"/>
        <grid.number value="6"/>
        <grid.length value="150"/>
    </grid_network>

    <tls_building>
        <tls.guess value="true"/>
        <tls.guess.threshold value="100"/>
    </tls_building>

    <junctions>
        <no-turnarounds value="true"/>
    </junctions>

    <pedestrian>
        <sidewalks.guess value="true"/>
        <crossings.guess value="true"/>
        <walkingareas value="true"/>
    </pedestrian>

    <report>
        <verbose value="true"/>
    </report>

</configuration>
-->

<net version="1.1" junctionCornerDetail="5" walkingareas="true" limitTurnSpeed="5.50" xmlns:xsi="http://www.w3.org/2001/XMLSchema-instance" xsi:noNamespaceSchemaLocation="http://sumo.dlr.de/xsd/net_file.xsd">

   <location netOffset="0.00,0.00" convBoundary="0.00,-100.00,200.00,100.00" origBoundary="-10000000000.000000,-10000000000.000000,10000000000.000000,10000000000.000000" projParameter="+proj=tmerc +ellps=WGS84 +datum=WGS84 +lat_0=49 +lon_0=11 +units=m +no_defs"/>

    <edge id=":A0_0" function="internal">
        <lane id=":A0_0_0" index="0" disallow="pedestrian" speed="7.10" length="10.97" shape="-1.60,5.20 -1.18,2.23 0.10,0.10 2.23,-1.17 5.20,-1.60"/>
    </edge>
    <edge id=":A0_1" function="internal">
        <lane id=":A0_1_0" index="0" disallow="pedestrian" speed="5.37" length="5.81" shape="5.20,1.60 3.62,1.83 2.50,2.50 1.82,3.63 1.60,5.20"/>
    </edge>
    <edge id=":A0_c0" function="crossing" crossingEdges="A0A1 A1A0">
        <lane id=":A0_c0_0" index="0" allow="pedestrian" speed="1.00" length="6.40" width="4.00" shape="3.20,3.20 -3.20,3.20"/>
    </edge>
    <edge id=":A0_w0" function="walkingarea">
        <lane id=":A0_w0_0" index="0" allow="pedestrian" speed="1.00" length="8.91" width="4.00" shape="5.20,-3.20 5.20,-5.20 -5.20,5.20 -3.20,5.20 -2.97,2.63 -2.27,0.53 -1.10,-1.10 0.53,-2.27 2.63,-2.97"/>
    </edge>
    <edge id=":A0_w1" function="walkingarea">
        <lane id=":A0_w1_0" index="0" allow="pedestrian" speed="1.00" length="1.96" width="4.00" shape="3.20,5.20 5.20,5.20 5.20,5.20 5.20,3.20 4.59,3.26 4.09,3.42 3.70,3.70 3.42,4.09 3.26,4.59"/>
    </edge>
    <edge id=":A1_0" function="internal">
        <lane id=":A1_0_0" index="0" disallow="pedestrian" speed="13.89" length="14.40" shape="-1.60,157.20 -1.60,142.80"/>
    </edge>
    <edge id=":A1_1" function="internal">
        <lane id=":A1_1_0" index="0" disallow="pedestrian" speed="8.00" length="5.93" shape="-1.60,157.20 -1.05,153.35 0.00,151.60"/>
    </edge>
    <edge id=":A1_6" function="internal">
        <lane id=":A1_6_0" index="0" disallow="pedestrian" speed="8.00" length="8.26" shape="0.00,151.60 0.60,150.60 3.35,148.95 7.20,148.40"/>
    </edge>
    <edge id=":A1_2" function="internal">
        <lane id=":A1_2_0" index="0" disallow="pedestrian" speed="6.51" length="9.03" shape="7.20,151.60 4.75,151.95 3.00,153.00 1.95,154.75 1.60,157.20"/>
    </edge>
    <edge id=":A1_3" function="internal">
        <lane id=":A1_3_0" index="0" disallow="pedestrian" speed="8.00" length="14.19" shape="7.20,151.60 3.35,151.05 0.60,149.40 -1.05,146.65 -1.60,142.80"/>
    </edge>
    <edge id=":A1_4" function="internal">
        <lane id=":A1_4_0" index="0" disallow="pedestrian" speed="6.51" length="4.75" shape="1.60,142.80 1.95,145.25 3.00,147.00 3.20,147.12"/>
    </edge>
    <edge id=":A1_5" function="internal">
        <lane id=":A1_5_0" index="0" disallow="pedestrian" speed="13.89" length="14.40" shape="1.60,142.80 1.60,157.20"/>
    </edge>
    <edge id=":A1_7" function="internal">
        <lane id=":A1_7_0" index="0" disallow="pedestrian" speed="6.51" length="4.28" shape="3.20,147.12 4.75,148.05 7.20,148.40"/>
    </edge>
    <edge id=":A1_c0" function="crossing" crossingEdges="A1A2 A2A1">
        <lane id=":A1_c0_0" index="0" allow="pedestrian" speed="1.00" length="6.40" width="4.00" shape="3.20,155.20 -3.20,155.20"/>
    </edge>
    <edge id=":A1_c1" function="crossing" crossingEdges="A1B1 B1A1">
        <lane id=":A1_c1_0" index="0" allow="pedestrian" speed="1.00" length="6.40" width="4.00" shape="5.20,146.80 5.20,153.20"/>
    </edge>
    <edge id=":A1_c2" function="crossing" crossingEdges="A1A0 A0A1">
        <lane id=":A1_c2_0" index="0" allow="pedestrian" speed="1.00" length="6.40" width="4.00" shape="-3.20,144.80 3.20,144.80"/>
    </edge>
    <edge id=":A1_w0" function="walkingarea">
        <lane id=":A1_w0_0" index="0" allow="pedestrian" speed="1.00" length="9.03" width="4.00" shape="-3.20,146.80 -3.20,142.80 -5.20,142.80 -5.20,157.20 -3.20,157.20 -3.20,153.20"/>
    </edge>
    <edge id=":A1_w1" function="walkingarea">
        <lane id=":A1_w1_0" index="0" allow="pedestrian" speed="1.00" length="3.30" width="4.00" shape="3.20,157.20 5.20,157.20 7.20,155.20 7.20,153.20 5.98,153.31 4.98,153.64 4.20,154.20 3.64,154.98 3.31,155.98"/>
    </edge>
    <edge id=":A1_w2" function="walkingarea">
        <lane id=":A1_w2_0" index="0" allow="pedestrian" speed="1.00" length="3.30" width="4.00" shape="7.20,146.80 7.20,144.80 5.20,142.80 3.20,142.80 3.31,144.02 3.64,145.02 4.20,145.80 4.98,146.36 5.98,146.69"/>
    </edge>
    <edge id=":A2_0" function="internal">
        <lane id=":A2_0_0" index="0" disallow="pedestrian" speed="13.89" length="14.40" shape="-1.60,307.20 -1.60,292.80"/>
    </edge>
    <edge id=":A2_1" function="internal">
        <lane id=":A2_1_0" index="0" disallow="pedestrian" speed="8.00" length="5.93" shape="-1.60,307.20 -1.05,303.35 -0.00,301.60"/>
    </edge>
    <edge id=":A2_6" function="internal">
        <lane id=":A2_6_0" index="0" disallow="pedestrian" speed="8.00" length="8.26" shape="-0.00,301.60 0.60,300.60 3.35,298.95 7.20,298.40"/>
    </edge>
    <edge id=":A2_2" function="internal">
        <lane id=":A2_2_0" index="0" disallow="pedestrian" speed="6.51" length="9.03" shape="7.20,301.60 4.75,301.95 3.00,303.00 1.95,304.75 1.60,307.20"/>
    </edge>
    <edge id=":A2_3" function="internal">
        <lane id=":A2_3_0" index="0" disallow="pedestrian" speed="8.00" length="14.19" shape="7.20,301.60 3.35,301.05 0.60,299.40 -1.05,296.65 -1.60,292.80"/>
    </edge>
    <edge id=":A2_4" function="internal">
        <lane id=":A2_4_0" index="0" disallow="pedestrian" speed="6.51" length="4.75" shape="1.60,292.80 1.95,295.25 3.00,297.00 3.20,297.12"/>
    </edge>
    <edge id=":A2_5" function="internal">
        <lane id=":A2_5_0" index="0" disallow="pedestrian" speed="13.89" length="14.40" shape="1.60,292.80 1.60,307.20"/>
    </edge>
    <edge id=":A2_7" function="internal">
        <lane id=":A2_7_0" index="0" disallow="pedestrian" speed="6.51" length="4.28" shape="3.20,297.12 4.75,298.05 7.20,298.40"/>
    </edge>
    <edge id=":A2_c0" function="crossing" crossingEdges="A2A3 A3A2">
        <lane id=":A2_c0_0" index="0" allow="pedestrian" speed="1.00" length="6.40" width="4.00" shape="3.20,305.20 -3.20,305.20"/>
    </edge>
    <edge id=":A2_c1" function="crossing" crossingEdges="A2B2 B2A2">
        <lane id=":A2_c1_0" index="0" allow="pedestrian" speed="1.00" length="6.40" width="4.00" shape="5.20,296.80 5.20,303.20"/>
    </edge>
    <edge id=":A2_c2" function="crossing" crossingEdges="A2A1 A1A2">
        <lane id=":A2_c2_0" index="0" allow="pedestrian" speed="1.00" length="6.40" width="4.00" shape="-3.20,294.80 3.20,294.80"/>
    </edge>
    <edge id=":A2_w0" function="walkingarea">
        <lane id=":A2_w0_0" index="0" allow="pedestrian" speed="1.00" length="9.03" width="4.00" shape="-3.20,296.80 -3.20,292.80 -5.20,292.80 -5.20,307.20 -3.20,307.20 -3.20,303.20"/>
    </edge>
    <edge id=":A2_w1" function="walkingarea">
        <lane id=":A2_w1_0" index="0" allow="pedestrian" speed="1.00" length="3.30" width="4.00" shape="3.20,307.20 5.20,307.20 7.20,305.20 7.20,303.20 5.98,303.31 4.98,303.64 4.20,304.20 3.64,304.98 3.31,305.98"/>
    </edge>
    <edge id=":A2_w2" function="walkingarea">
        <lane id=":A2_w2_0" index="0" allow="pedestrian" speed="1.00" length="3.30" width="4.00" shape="7.20,296.80 7.20,294.80 5.20,292.80 3.20,292.80 3.31,294.02 3.64,295.02 4.20,295.80 4.98,296.36 5.98,296.69"/>
    </edge>
    <edge id=":A3_0" function="internal">
        <lane id=":A3_0_0" index="0" disallow="pedestrian" speed="13.89" length="14.40" shape="-1.60,457.20 -1.60,442.80"/>
    </edge>
    <edge id=":A3_1" function="internal">
        <lane id=":A3_1_0" index="0" disallow="pedestrian" speed="8.00" length="5.93" shape="-1.60,457.20 -1.05,453.35 -0.00,451.60"/>
    </edge>
    <edge id=":A3_6" function="internal">
        <lane id=":A3_6_0" index="0" disallow="pedestrian" speed="8.00" length="8.26" shape="-0.00,451.60 0.60,450.60 3.35,448.95 7.20,448.40"/>
    </edge>
    <edge id=":A3_2" function="internal">
        <lane id=":A3_2_0" index="0" disallow="pedestrian" speed="6.51" length="9.03" shape="7.20,451.60 4.75,451.95 3.00,453.00 1.95,454.75 1.60,457.20"/>
    </edge>
    <edge id=":A3_3" function="internal">
        <lane id=":A3_3_0" index="0" disallow="pedestrian" speed="8.00" length="14.19" shape="7.20,451.60 3.35,451.05 0.60,449.40 -1.05,446.65 -1.60,442.80"/>
    </edge>
    <edge id=":A3_4" function="internal">
        <lane id=":A3_4_0" index="0" disallow="pedestrian" speed="6.51" length="4.75" shape="1.60,442.80 1.95,445.25 3.00,447.00 3.20,447.12"/>
    </edge>
    <edge id=":A3_5" function="internal">
        <lane id=":A3_5_0" index="0" disallow="pedestrian" speed="13.89" length="14.40" shape="1.60,442.80 1.60,457.20"/>
    </edge>
    <edge id=":A3_7" function="internal">
        <lane id=":A3_7_0" index="0" disallow="pedestrian" speed="6.51" length="4.28" shape="3.20,447.12 4.75,448.05 7.20,448.40"/>
    </edge>
    <edge id=":A3_c0" function="crossing" crossingEdges="A3A4 A4A3">
        <lane id=":A3_c0_0" index="0" allow="pedestrian" speed="1.00" length="6.40" width="4.00" shape="3.20,455.20 -3.20,455.20"/>
    </edge>
    <edge id=":A3_c1" function="crossing" crossingEdges="A3B3 B3A3">
        <lane id=":A3_c1_0" index="0" allow="pedestrian" speed="1.00" length="6.40" width="4.00" shape="5.20,446.80 5.20,453.20"/>
    </edge>
    <edge id=":A3_c2" function="crossing" crossingEdges="A3A2 A2A3">
        <lane id=":A3_c2_0" index="0" allow="pedestrian" speed="1.00" length="6.40" width="4.00" shape="-3.20,444.80 3.20,444.80"/>
    </edge>
    <edge id=":A3_w0" function="walkingarea">
        <lane id=":A3_w0_0" index="0" allow="pedestrian" speed="1.00" length="9.03" width="4.00" shape="-3.20,446.80 -3.20,442.80 -5.20,442.80 -5.20,457.20 -3.20,457.20 -3.20,453.20"/>
    </edge>
    <edge id=":A3_w1" function="walkingarea">
        <lane id=":A3_w1_0" index="0" allow="pedestrian" speed="1.00" length="3.30" width="4.00" shape="3.20,457.20 5.20,457.20 7.20,455.20 7.20,453.20 5.98,453.31 4.98,453.64 4.20,454.20 3.64,454.98 3.31,455.98"/>
    </edge>
    <edge id=":A3_w2" function="walkingarea">
        <lane id=":A3_w2_0" index="0" allow="pedestrian" speed="1.00" length="3.30" width="4.00" shape="7.20,446.80 7.20,444.80 5.20,442.80 3.20,442.80 3.31,444.02 3.64,445.02 4.20,445.80 4.98,446.36 5.98,446.69"/>
    </edge>
    <edge id=":A4_0" function="internal">
        <lane id=":A4_0_0" index="0" disallow="pedestrian" speed="13.89" length="14.40" shape="-1.60,607.20 -1.60,592.80"/>
    </edge>
    <edge id=":A4_1" function="internal">
        <lane id=":A4_1_0" index="0" disallow="pedestrian" speed="8.00" length="5.93" shape="-1.60,607.20 -1.05,603.35 0.00,601.60"/>
    </edge>
    <edge id=":A4_6" function="internal">
        <lane id=":A4_6_0" index="0" disallow="pedestrian" speed="8.00" length="8.26" shape="0.00,601.60 0.60,600.60 3.35,598.95 7.20,598.40"/>
    </edge>
    <edge id=":A4_2" function="internal">
        <lane id=":A4_2_0" index="0" disallow="pedestrian" speed="6.51" length="9.03" shape="7.20,601.60 4.75,601.95 3.00,603.00 1.95,604.75 1.60,607.20"/>
    </edge>
    <edge id=":A4_3" function="internal">
        <lane id=":A4_3_0" index="0" disallow="pedestrian" speed="8.00" length="14.19" shape="7.20,601.60 3.35,601.05 0.60,599.40 -1.05,596.65 -1.60,592.80"/>
    </edge>
    <edge id=":A4_4" function="internal">
        <lane id=":A4_4_0" index="0" disallow="pedestrian" speed="6.51" length="4.75" shape="1.60,592.80 1.95,595.25 3.00,597.00 3.20,597.12"/>
    </edge>
    <edge id=":A4_5" function="internal">
        <lane id=":A4_5_0" index="0" disallow="pedestrian" speed="13.89" length="14.40" shape="1.60,592.80 1.60,607.20"/>
    </edge>
    <edge id=":A4_7" function="internal">
        <lane id=":A4_7_0" index="0" disallow="pedestrian" speed="6.51" length="4.28" shape="3.20,597.12 4.75,598.05 7.20,598.40"/>
    </edge>
    <edge id=":A4_c0" function="crossing" crossingEdges="A4A5 A5A4">
        <lane id=":A4_c0_0" index="0" allow="pedestrian" speed="1.00" length="6.40" width="4.00" shape="3.20,605.20 -3.20,605.20"/>
    </edge>
    <edge id=":A4_c1" function="crossing" crossingEdges="A4B4 B4A4">
        <lane id=":A4_c1_0" index="0" allow="pedestrian" speed="1.00" length="6.40" width="4.00" shape="5.20,596.80 5.20,603.20"/>
    </edge>
    <edge id=":A4_c2" function="crossing" crossingEdges="A4A3 A3A4">
        <lane id=":A4_c2_0" index="0" allow="pedestrian" speed="1.00" length="6.40" width="4.00" shape="-3.20,594.80 3.20,594.80"/>
    </edge>
    <edge id=":A4_w0" function="walkingarea">
        <lane id=":A4_w0_0" index="0" allow="pedestrian" speed="1.00" length="9.03" width="4.00" shape="-3.20,596.80 -3.20,592.80 -5.20,592.80 -5.20,607.20 -3.20,607.20 -3.20,603.20"/>
    </edge>
    <edge id=":A4_w1" function="walkingarea">
        <lane id=":A4_w1_0" index="0" allow="pedestrian" speed="1.00" length="3.30" width="4.00" shape="3.20,607.20 5.20,607.20 7.20,605.20 7.20,603.20 5.98,603.31 4.98,603.64 4.20,604.20 3.64,604.98 3.31,605.98"/>
    </edge>
    <edge id=":A4_w2" function="walkingarea">
        <lane id=":A4_w2_0" index="0" allow="pedestrian" speed="1.00" length="3.30" width="4.00" shape="7.20,596.80 7.20,594.80 5.20,592.80 3.20,592.80 3.31,594.02 3.64,595.02 4.20,595.80 4.98,596.36 5.98,596.69"/>
    </edge>
    <edge id=":A5_0" function="internal">
        <lane id=":A5_0_0" index="0" disallow="pedestrian" speed="7.10" length="10.97" shape="5.20,751.60 2.23,751.17 0.10,749.90 -1.17,747.78 -1.60,744.80"/>
    </edge>
    <edge id=":A5_1" function="internal">
        <lane id=":A5_1_0" index="0" disallow="pedestrian" speed="5.37" length="5.81" shape="1.60,744.80 1.83,746.37 2.50,747.50 3.63,748.17 5.20,748.40"/>
    </edge>
    <edge id=":A5_c0" function="crossing" crossingEdges="A5B5 B5A5">
        <lane id=":A5_c0_0" index="0" allow="pedestrian" speed="1.00" length="6.40" width="4.00" shape="3.20,746.80 3.20,753.20"/>
    </edge>
    <edge id=":A5_w0" function="walkingarea">
        <lane id=":A5_w0_0" index="0" allow="pedestrian" speed="1.00" length="8.91" width="4.00" shape="-3.20,744.80 -5.20,744.80 5.20,755.20 5.20,753.20 2.63,752.97 0.53,752.27 -1.10,751.10 -2.27,749.47 -2.97,747.37"/>
    </edge>
    <edge id=":A5_w1" function="walkingarea">
        <lane id=":A5_w1_0" index="0" allow="pedestrian" speed="1.00" length="1.96" width="4.00" shape="5.20,746.80 5.20,744.80 5.20,744.80 3.20,744.80 3.26,745.41 3.42,745.91 3.70,746.30 4.09,746.58 4.59,746.74"/>
    </edge>
    <edge id=":B0_0" function="internal">
        <lane id=":B0_0_0" index="0" disallow="pedestrian" speed="6.51" length="9.03" shape="148.40,7.20 148.05,4.75 147.00,3.00 145.25,1.95 142.80,1.60"/>
    </edge>
    <edge id=":B0_1" function="internal">
        <lane id=":B0_1_0" index="0" disallow="pedestrian" speed="8.00" length="14.19" shape="148.40,7.20 148.95,3.35 150.60,0.60 153.35,-1.05 157.20,-1.60"/>
    </edge>
    <edge id=":B0_2" function="internal">
        <lane id=":B0_2_0" index="0" disallow="pedestrian" speed="6.51" length="4.75" shape="157.20,1.60 154.75,1.95 153.00,3.00 152.88,3.20"/>
    </edge>
    <edge id=":B0_3" function="internal">
        <lane id=":B0_3_0" index="0" disallow="pedestrian" speed="13.89" length="14.40" shape="157.20,1.60 142.80,1.60"/>
    </edge>
    <edge id=":B0_6" function="internal">
        <lane id=":B0_6_0" index="0" disallow="pedestrian" speed="6.51" length="4.28" shape="152.88,3.20 151.95,4.75 151.60,7.20"/>
    </edge>
    <edge id=":B0_4" function="internal">
        <lane id=":B0_4_0" index="0" disallow="pedestrian" speed="13.89" length="14.40" shape="142.80,-1.60 157.20,-1.60"/>
    </edge>
    <edge id=":B0_5" function="internal">
        <lane id=":B0_5_0" index="0" disallow="pedestrian" speed="8.00" length="5.93" shape="142.80,-1.60 146.65,-1.05 148.40,0.00"/>
    </edge>
    <edge id=":B0_7" function="internal">
        <lane id=":B0_7_0" index="0" disallow="pedestrian" speed="8.00" length="8.26" shape="148.40,0.00 149.40,0.60 151.05,3.35 151.60,7.20"/>
    </edge>
    <edge id=":B0_c0" function="crossing" crossingEdges="B0B1 B1B0">
        <lane id=":B0_c0_0" index="0" allow="pedestrian" speed="1.00" length="6.40" width="4.00" shape="153.20,5.20 146.80,5.20"/>
    </edge>
    <edge id=":B0_c1" function="crossing" crossingEdges="B0C0 C0B0">
        <lane id=":B0_c1_0" index="0" allow="pedestrian" speed="1.00" length="6.40" width="4.00" shape="155.20,-3.20 155.20,3.20"/>
    </edge>
    <edge id=":B0_c2" function="crossing" crossingEdges="B0A0 A0B0">
        <lane id=":B0_c2_0" index="0" allow="pedestrian" speed="1.00" length="6.40" width="4.00" shape="144.80,3.20 144.80,-3.20"/>
    </edge>
    <edge id=":B0_w0" function="walkingarea">
        <lane id=":B0_w0_0" index="0" allow="pedestrian" speed="1.00" length="3.30" width="4.00" shape="142.80,3.20 142.80,5.20 144.80,7.20 146.80,7.20 146.69,5.98 146.36,4.98 145.80,4.20 145.02,3.64 144.02,3.31"/>
    </edge>
    <edge id=":B0_w1" function="walkingarea">
        <lane id=":B0_w1_0" index="0" allow="pedestrian" speed="1.00" length="3.30" width="4.00" shape="153.20,7.20 155.20,7.20 157.20,5.20 157.20,3.20 155.98,3.31 154.98,3.64 154.20,4.20 153.64,4.98 153.31,5.98"/>
    </edge>
    <edge id=":B0_w2" function="walkingarea">
        <lane id=":B0_w2_0" index="0" allow="pedestrian" speed="1.00" length="9.03" width="4.00" shape="153.20,-3.20 157.20,-3.20 157.20,-5.20 142.80,-5.20 142.80,-3.20 146.80,-3.20"/>
    </edge>
    <edge id=":B1_0" function="internal">
        <lane id=":B1_0_0" index="0" disallow="pedestrian" speed="6.51" length="4.75" shape="148.40,157.20 148.05,154.75 147.00,153.00 146.80,152.88"/>
    </edge>
    <edge id=":B1_1" function="internal">
        <lane id=":B1_1_0" index="0" disallow="pedestrian" speed="13.89" length="14.40" shape="148.40,157.20 148.40,142.80"/>
    </edge>
    <edge id=":B1_2" function="internal">
        <lane id=":B1_2_0" index="0" disallow="pedestrian" speed="8.00" length="5.93" shape="148.40,157.20 148.95,153.35 150.00,151.60"/>
    </edge>
    <edge id=":B1_12" function="internal">
        <lane id=":B1_12_0" index="0" disallow="pedestrian" speed="6.51" length="4.28" shape="146.80,152.88 145.25,151.95 142.80,151.60"/>
    </edge>
    <edge id=":B1_13" function="internal">
        <lane id=":B1_13_0" index="0" disallow="pedestrian" speed="8.00" length="8.26" shape="150.00,151.60 150.60,150.60 153.35,148.95 157.20,148.40"/>
    </edge>
    <edge id=":B1_3" function="internal">
        <lane id=":B1_3_0" index="0" disallow="pedestrian" speed="6.51" length="9.03" shape="157.20,151.60 154.75,151.95 153.00,153.00 151.95,154.75 151.60,157.20"/>
    </edge>
    <edge id=":B1_4" function="internal">
        <lane id=":B1_4_0" index="0" disallow="pedestrian" speed="13.89" length="14.40" shape="157.20,151.60 142.80,151.60"/>
    </edge>
    <edge id=":B1_5" function="internal">
        <lane id=":B1_5_0" index="0" disallow="pedestrian" speed="8.00" length="14.19" shape="157.20,151.60 153.35,151.05 150.60,149.40 148.95,146.65 148.40,142.80"/>
    </edge>
    <edge id=":B1_6" function="internal">
        <lane id=":B1_6_0" index="0" disallow="pedestrian" speed="6.51" length="4.75" shape="151.60,142.80 151.95,145.25 153.00,147.00 153.20,147.12"/>
    </edge>
    <edge id=":B1_7" function="internal">
        <lane id=":B1_7_0" index="0" disallow="pedestrian" speed="13.89" length="14.40" shape="151.60,142.80 151.60,157.20"/>
    </edge>
    <edge id=":B1_8" function="internal">
        <lane id=":B1_8_0" index="0" disallow="pedestrian" speed="8.00" length="5.93" shape="151.60,142.80 151.05,146.65 150.00,148.40"/>
    </edge>
    <edge id=":B1_14" function="internal">
        <lane id=":B1_14_0" index="0" disallow="pedestrian" speed="6.51" length="4.28" shape="153.20,147.12 154.75,148.05 157.20,148.40"/>
    </edge>
    <edge id=":B1_15" function="internal">
        <lane id=":B1_15_0" index="0" disallow="pedestrian" speed="8.00" length="8.26" shape="150.00,148.40 149.40,149.40 146.65,151.05 142.80,151.60"/>
    </edge>
    <edge id=":B1_9" function="internal">
        <lane id=":B1_9_0" index="0" disallow="pedestrian" speed="6.51" length="9.03" shape="142.80,148.40 145.25,148.05 147.00,147.00 148.05,145.25 148.40,142.80"/>
    </edge>
    <edge id=":B1_10" function="internal">
        <lane id=":B1_10_0" index="0" disallow="pedestrian" speed="13.89" length="14.40" shape="142.80,148.40 157.20,148.40"/>
    </edge>
    <edge id=":B1_11" function="internal">
        <lane id=":B1_11_0" index="0" disallow="pedestrian" speed="8.00" length="14.19" shape="142.80,148.40 146.65,148.95 149.40,150.60 151.05,153.35 151.60,157.20"/>
    </edge>
    <edge id=":B1_c0" function="crossing" crossingEdges="B1B2 B2B1">
        <lane id=":B1_c0_0" index="0" allow="pedestrian" speed="1.00" length="6.40" width="4.00" shape="153.20,155.20 146.80,155.20"/>
    </edge>
    <edge id=":B1_c1" function="crossing" crossingEdges="B1C1 C1B1">
        <lane id=":B1_c1_0" index="0" allow="pedestrian" speed="1.00" length="6.40" width="4.00" shape="155.20,146.80 155.20,153.20"/>
    </edge>
    <edge id=":B1_c2" function="crossing" crossingEdges="B1B0 B0B1">
        <lane id=":B1_c2_0" index="0" allow="pedestrian" speed="1.00" length="6.40" width="4.00" shape="146.80,144.80 153.20,144.80"/>
    </edge>
    <edge id=":B1_c3" function="crossing" crossingEdges="B1A1 A1B1">
        <lane id=":B1_c3_0" index="0" allow="pedestrian" speed="1.00" length="6.40" width="4.00" shape="144.80,153.20 144.80,146.80"/>
    </edge>
    <edge id=":B1_w0" function="walkingarea">
        <lane id=":B1_w0_0" index="0" allow="pedestrian" speed="1.00" length="3.30" width="4.00" shape="142.80,153.20 142.80,155.20 144.80,157.20 146.80,157.20 146.69,155.98 146.36,154.98 145.80,154.20 145.02,153.64 144.02,153.31"/>
    </edge>
    <edge id=":B1_w1" function="walkingarea">
        <lane id=":B1_w1_0" index="0" allow="pedestrian" speed="1.00" length="3.30" width="4.00" shape="153.20,157.20 155.20,157.20 157.20,155.20 157.20,153.20 155.98,153.31 154.98,153.64 154.20,154.20 153.64,154.98 153.31,155.98"/>
    </edge>
    <edge id=":B1_w2" function="walkingarea">
        <lane id=":B1_w2_0" index="0" allow="pedestrian" speed="1.00" length="3.30" width="4.00" shape="157.20,146.80 157.20,144.80 155.20,142.80 153.20,142.80 153.31,144.02 153.64,145.02 154.20,145.80 154.98,146.36 155.98,146.69"/>
    </edge>
    <edge id=":B1_w3" function="walkingarea">
        <lane id=":B1_w3_0" index="0" allow="pedestrian" speed="1.00" length="3.30" width="4.00" shape="146.80,142.80 144.80,142.80 142.80,144.80 142.80,146.80 144.02,146.69 145.02,146.36 145.80,145.80 146.36,145.02 146.69,144.02"/>
    </edge>
    <edge id=":B2_0" function="internal">
        <lane id=":B2_0_0" index="0" disallow="pedestrian" speed="6.51" length="4.75" shape="148.40,307.20 148.05,304.75 147.00,303.00 146.80,302.88"/>
    </edge>
    <edge id=":B2_1" function="internal">
        <lane id=":B2_1_0" index="0" disallow="pedestrian" speed="13.89" length="14.40" shape="148.40,307.20 148.40,292.80"/>
    </edge>
    <edge id=":B2_2" function="internal">
        <lane id=":B2_2_0" index="0" disallow="pedestrian" speed="8.00" length="5.93" shape="148.40,307.20 148.95,303.35 150.00,301.60"/>
    </edge>
    <edge id=":B2_12" function="internal">
        <lane id=":B2_12_0" index="0" disallow="pedestrian" speed="6.51" length="4.28" shape="146.80,302.88 145.25,301.95 142.80,301.60"/>
    </edge>
    <edge id=":B2_13" function="internal">
        <lane id=":B2_13_0" index="0" disallow="pedestrian" speed="8.00" length="8.26" shape="150.00,301.60 150.60,300.60 153.35,298.95 157.20,298.40"/>
    </edge>
    <edge id=":B2_3" function="internal">
        <lane id=":B2_3_0" index="0" disallow="pedestrian" speed="6.51" length="9.03" shape="157.20,301.60 154.75,301.95 153.00,303.00 151.95,304.75 151.60,307.20"/>
    </edge>
    <edge id=":B2_4" function="internal">
        <lane id=":B2_4_0" index="0" disallow="pedestrian" speed="13.89" length="14.40" shape="157.20,301.60 142.80,301.60"/>
    </edge>
    <edge id=":B2_5" function="internal">
        <lane id=":B2_5_0" index="0" disallow="pedestrian" speed="8.00" length="14.19" shape="157.20,301.60 153.35,301.05 150.60,299.40 148.95,296.65 148.40,292.80"/>
    </edge>
    <edge id=":B2_6" function="internal">
        <lane id=":B2_6_0" index="0" disallow="pedestrian" speed="6.51" length="4.75" shape="151.60,292.80 151.95,295.25 153.00,297.00 153.20,297.12"/>
    </edge>
    <edge id=":B2_7" function="internal">
        <lane id=":B2_7_0" index="0" disallow="pedestrian" speed="13.89" length="14.40" shape="151.60,292.80 151.60,307.20"/>
    </edge>
    <edge id=":B2_8" function="internal">
        <lane id=":B2_8_0" index="0" disallow="pedestrian" speed="8.00" length="5.93" shape="151.60,292.80 151.05,296.65 150.00,298.40"/>
    </edge>
    <edge id=":B2_14" function="internal">
        <lane id=":B2_14_0" index="0" disallow="pedestrian" speed="6.51" length="4.28" shape="153.20,297.12 154.75,298.05 157.20,298.40"/>
    </edge>
    <edge id=":B2_15" function="internal">
        <lane id=":B2_15_0" index="0" disallow="pedestrian" speed="8.00" length="8.26" shape="150.00,298.40 149.40,299.40 146.65,301.05 142.80,301.60"/>
    </edge>
    <edge id=":B2_9" function="internal">
        <lane id=":B2_9_0" index="0" disallow="pedestrian" speed="6.51" length="9.03" shape="142.80,298.40 145.25,298.05 147.00,297.00 148.05,295.25 148.40,292.80"/>
    </edge>
    <edge id=":B2_10" function="internal">
        <lane id=":B2_10_0" index="0" disallow="pedestrian" speed="13.89" length="14.40" shape="142.80,298.40 157.20,298.40"/>
    </edge>
    <edge id=":B2_11" function="internal">
        <lane id=":B2_11_0" index="0" disallow="pedestrian" speed="8.00" length="14.19" shape="142.80,298.40 146.65,298.95 149.40,300.60 151.05,303.35 151.60,307.20"/>
    </edge>
    <edge id=":B2_c0" function="crossing" crossingEdges="B2B3 B3B2">
        <lane id=":B2_c0_0" index="0" allow="pedestrian" speed="1.00" length="6.40" width="4.00" shape="153.20,305.20 146.80,305.20"/>
    </edge>
    <edge id=":B2_c1" function="crossing" crossingEdges="B2C2 C2B2">
        <lane id=":B2_c1_0" index="0" allow="pedestrian" speed="1.00" length="6.40" width="4.00" shape="155.20,296.80 155.20,303.20"/>
    </edge>
    <edge id=":B2_c2" function="crossing" crossingEdges="B2B1 B1B2">
        <lane id=":B2_c2_0" index="0" allow="pedestrian" speed="1.00" length="6.40" width="4.00" shape="146.80,294.80 153.20,294.80"/>
    </edge>
    <edge id=":B2_c3" function="crossing" crossingEdges="B2A2 A2B2">
        <lane id=":B2_c3_0" index="0" allow="pedestrian" speed="1.00" length="6.40" width="4.00" shape="144.80,303.20 144.80,296.80"/>
    </edge>
    <edge id=":B2_w0" function="walkingarea">
        <lane id=":B2_w0_0" index="0" allow="pedestrian" speed="1.00" length="3.30" width="4.00" shape="142.80,303.20 142.80,305.20 144.80,307.20 146.80,307.20 146.69,305.98 146.36,304.98 145.80,304.20 145.02,303.64 144.02,303.31"/>
    </edge>
    <edge id=":B2_w1" function="walkingarea">
        <lane id=":B2_w1_0" index="0" allow="pedestrian" speed="1.00" length="3.30" width="4.00" shape="153.20,307.20 155.20,307.20 157.20,305.20 157.20,303.20 155.98,303.31 154.98,303.64 154.20,304.20 153.64,304.98 153.31,305.98"/>
    </edge>
    <edge id=":B2_w2" function="walkingarea">
        <lane id=":B2_w2_0" index="0" allow="pedestrian" speed="1.00" length="3.30" width="4.00" shape="157.20,296.80 157.20,294.80 155.20,292.80 153.20,292.80 153.31,294.02 153.64,295.02 154.20,295.80 154.98,296.36 155.98,296.69"/>
    </edge>
    <edge id=":B2_w3" function="walkingarea">
        <lane id=":B2_w3_0" index="0" allow="pedestrian" speed="1.00" length="3.30" width="4.00" shape="146.80,292.80 144.80,292.80 142.80,294.80 142.80,296.80 144.02,296.69 145.02,296.36 145.80,295.80 146.36,295.02 146.69,294.02"/>
    </edge>
    <edge id=":B3_0" function="internal">
        <lane id=":B3_0_0" index="0" disallow="pedestrian" speed="6.51" length="4.75" shape="148.40,457.20 148.05,454.75 147.00,453.00 146.80,452.88"/>
    </edge>
    <edge id=":B3_1" function="internal">
        <lane id=":B3_1_0" index="0" disallow="pedestrian" speed="13.89" length="14.40" shape="148.40,457.20 148.40,442.80"/>
    </edge>
    <edge id=":B3_2" function="internal">
        <lane id=":B3_2_0" index="0" disallow="pedestrian" speed="8.00" length="5.93" shape="148.40,457.20 148.95,453.35 150.00,451.60"/>
    </edge>
    <edge id=":B3_12" function="internal">
        <lane id=":B3_12_0" index="0" disallow="pedestrian" speed="6.51" length="4.28" shape="146.80,452.88 145.25,451.95 142.80,451.60"/>
    </edge>
    <edge id=":B3_13" function="internal">
        <lane id=":B3_13_0" index="0" disallow="pedestrian" speed="8.00" length="8.26" shape="150.00,451.60 150.60,450.60 153.35,448.95 157.20,448.40"/>
    </edge>