<?xml version="1.0" encoding="UTF-8"?>

<!-- generated on Tue Mar  3 12:20:36 2020 by Eclipse SUMO netgenerate Version 1.2.0
<configuration xmlns:xsi="http://www.w3.org/2001/XMLSchema-instance" xsi:noNamespaceSchemaLocation="http://sumo.dlr.de/xsd/netgenerateConfiguration.xsd">

    <grid_network>
        <grid value="true"/>
        <grid.number value="6"/>
        <grid.length value="100"/>
    </grid_network>

    <tls_building>
        <tls.guess value="true"/>
        <tls.guess.threshold value="100"/>
    </tls_building>

    <junctions>
        <no-turnarounds value="true"/>
    </junctions>

    <pedestrian>
        <sidewalks.guess value="true"/>
        <crossings.guess value="true"/>
        <walkingareas value="true"/>
    </pedestrian>

</configuration>
-->

<net version="1.1" junctionCornerDetail="5" walkingareas="true" limitTurnSpeed="5.50" xmlns:xsi="http://www.w3.org/2001/XMLSchema-instance" xsi:noNamespaceSchemaLocation="http://sumo.dlr.de/xsd/net_file.xsd">

    <location netOffset="0.00,0.00" convBoundary="0.00,0.00,500.00,500.00" origBoundary="0.00,0.00,500.00,500.00" projParameter="+proj=tmerc +ellps=WGS84 +datum=WGS84 +lat_0=49 +lon_0=11 +units=m +no_defs"/>

    <edge id=":A0_0" function="internal">
        <lane id=":A0_0_0" index="0" disallow="pedestrian" speed="7.10" length="10.97" shape="-1.60,5.20 -1.17,2.23 0.10,0.10 2.23,-1.17 5.20,-1.60"/>
    </edge>
    <edge id=":A0_1" function="internal">
        <lane id=":A0_1_0" index="0" disallow="pedestrian" speed="5.37" length="5.81" shape="5.20,1.60 3.63,1.83 2.50,2.50 1.83,3.63 1.60,5.20"/>
    </edge>
    <edge id=":A0_c0" function="crossing" crossingEdges="A0A1 A1A0">
        <lane id=":A0_c0_0" index="0" allow="pedestrian" speed="1.00" length="6.40" width="4.00" shape="3.20,3.20 -3.20,3.20"/>
    </edge>
    <edge id=":A0_w0" function="walkingarea">
        <lane id=":A0_w0_0" index="0" allow="pedestrian" speed="1.00" length="8.91" width="4.00" shape="5.20,-3.20 5.20,-5.20 -5.20,5.20 -3.20,5.20 -2.97,2.63 -2.27,0.53 -1.10,-1.10 0.53,-2.27 2.63,-2.97"/>
    </edge>
    <edge id=":A0_w1" function="walkingarea">
        <lane id=":A0_w1_0" index="0" allow="pedestrian" speed="1.00" length="1.96" width="4.00" shape="3.20,5.20 5.20,5.20 5.20,5.20 5.20,3.20 4.59,3.26 4.09,3.42 3.70,3.70 3.42,4.09 3.26,4.59"/>
    </edge>
    <edge id=":A1_0" function="internal">
        <lane id=":A1_0_0" index="0" disallow="pedestrian" speed="13.89" length="14.40" shape="-1.60,107.20 -1.60,92.80"/>
    </edge>
    <edge id=":A1_1" function="internal">
        <lane id=":A1_1_0" index="0" disallow="pedestrian" speed="8.00" length="5.93" shape="-1.60,107.20 -1.05,103.35 -0.00,101.60"/>
    </edge>
    <edge id=":A1_6" function="internal">
        <lane id=":A1_6_0" index="0" disallow="pedestrian" speed="8.00" length="8.26" shape="-0.00,101.60 0.60,100.60 3.35,98.95 7.20,98.40"/>
    </edge>
    <edge id=":A1_2" function="internal">
        <lane id=":A1_2_0" index="0" disallow="pedestrian" speed="6.51" length="9.03" shape="7.20,101.60 4.75,101.95 3.00,103.00 1.95,104.75 1.60,107.20"/>
    </edge>
    <edge id=":A1_3" function="internal">
        <lane id=":A1_3_0" index="0" disallow="pedestrian" speed="8.00" length="14.19" shape="7.20,101.60 3.35,101.05 0.60,99.40 -1.05,96.65 -1.60,92.80"/>
    </edge>
    <edge id=":A1_4" function="internal">
        <lane id=":A1_4_0" index="0" disallow="pedestrian" speed="6.51" length="4.75" shape="1.60,92.80 1.95,95.25 3.00,97.00 3.20,97.12"/>
    </edge>
    <edge id=":A1_5" function="internal">
        <lane id=":A1_5_0" index="0" disallow="pedestrian" speed="13.89" length="14.40" shape="1.60,92.80 1.60,107.20"/>
    </edge>
    <edge id=":A1_7" function="internal">
        <lane id=":A1_7_0" index="0" disallow="pedestrian" speed="6.51" length="4.28" shape="3.20,97.12 4.75,98.05 7.20,98.40"/>
    </edge>
    <edge id=":A1_c0" function="crossing" crossingEdges="A1A2 A2A1">
        <lane id=":A1_c0_0" index="0" allow="pedestrian" speed="1.00" length="6.40" width="4.00" shape="3.20,105.20 -3.20,105.20"/>
    </edge>
    <edge id=":A1_c1" function="crossing" crossingEdges="A1B1 B1A1">
        <lane id=":A1_c1_0" index="0" allow="pedestrian" speed="1.00" length="6.40" width="4.00" shape="5.20,96.80 5.20,103.20"/>
    </edge>
    <edge id=":A1_c2" function="crossing" crossingEdges="A1A0 A0A1">
        <lane id=":A1_c2_0" index="0" allow="pedestrian" speed="1.00" length="6.40" width="4.00" shape="-3.20,94.80 3.20,94.80"/>
    </edge>
    <edge id=":A1_w0" function="walkingarea">
        <lane id=":A1_w0_0" index="0" allow="pedestrian" speed="1.00" length="9.03" width="4.00" shape="-3.20,96.80 -3.20,92.80 -5.20,92.80 -5.20,107.20 -3.20,107.20 -3.20,103.20"/>
    </edge>
    <edge id=":A1_w1" function="walkingarea">
        <lane id=":A1_w1_0" index="0" allow="pedestrian" speed="1.00" length="3.30" width="4.00" shape="3.20,107.20 5.20,107.20 7.20,105.20 7.20,103.20 5.98,103.31 4.98,103.64 4.20,104.20 3.64,104.98 3.31,105.98"/>
    </edge>
    <edge id=":A1_w2" function="walkingarea">
        <lane id=":A1_w2_0" index="0" allow="pedestrian" speed="1.00" length="3.30" width="4.00" shape="7.20,96.80 7.20,94.80 5.20,92.80 3.20,92.80 3.31,94.02 3.64,95.02 4.20,95.80 4.98,96.36 5.98,96.69"/>
    </edge>
    <edge id=":A2_0" function="internal">
        <lane id=":A2_0_0" index="0" disallow="pedestrian" speed="13.89" length="14.40" shape="-1.60,207.20 -1.60,192.80"/>
    </edge>
    <edge id=":A2_1" function="internal">
        <lane id=":A2_1_0" index="0" disallow="pedestrian" speed="8.00" length="5.93" shape="-1.60,207.20 -1.05,203.35 0.00,201.60"/>
    </edge>
    <edge id=":A2_6" function="internal">
        <lane id=":A2_6_0" index="0" disallow="pedestrian" speed="8.00" length="8.26" shape="0.00,201.60 0.60,200.60 3.35,198.95 7.20,198.40"/>
    </edge>
    <edge id=":A2_2" function="internal">
        <lane id=":A2_2_0" index="0" disallow="pedestrian" speed="6.51" length="9.03" shape="7.20,201.60 4.75,201.95 3.00,203.00 1.95,204.75 1.60,207.20"/>
    </edge>
    <edge id=":A2_3" function="internal">
        <lane id=":A2_3_0" index="0" disallow="pedestrian" speed="8.00" length="14.19" shape="7.20,201.60 3.35,201.05 0.60,199.40 -1.05,196.65 -1.60,192.80"/>
    </edge>
    <edge id=":A2_4" function="internal">
        <lane id=":A2_4_0" index="0" disallow="pedestrian" speed="6.51" length="4.75" shape="1.60,192.80 1.95,195.25 3.00,197.00 3.20,197.12"/>
    </edge>
    <edge id=":A2_5" function="internal">
        <lane id=":A2_5_0" index="0" disallow="pedestrian" speed="13.89" length="14.40" shape="1.60,192.80 1.60,207.20"/>
    </edge>
    <edge id=":A2_7" function="internal">
        <lane id=":A2_7_0" index="0" disallow="pedestrian" speed="6.51" length="4.28" shape="3.20,197.12 4.75,198.05 7.20,198.40"/>
    </edge>
    <edge id=":A2_c0" function="crossing" crossingEdges="A2A3 A3A2">
        <lane id=":A2_c0_0" index="0" allow="pedestrian" speed="1.00" length="6.40" width="4.00" shape="3.20,205.20 -3.20,205.20"/>
    </edge>
    <edge id=":A2_c1" function="crossing" crossingEdges="A2B2 B2A2">
        <lane id=":A2_c1_0" index="0" allow="pedestrian" speed="1.00" length="6.40" width="4.00" shape="5.20,196.80 5.20,203.20"/>
    </edge>
    <edge id=":A2_c2" function="crossing" crossingEdges="A2A1 A1A2">
        <lane id=":A2_c2_0" index="0" allow="pedestrian" speed="1.00" length="6.40" width="4.00" shape="-3.20,194.80 3.20,194.80"/>
    </edge>
    <edge id=":A2_w0" function="walkingarea">
        <lane id=":A2_w0_0" index="0" allow="pedestrian" speed="1.00" length="9.03" width="4.00" shape="-3.20,196.80 -3.20,192.80 -5.20,192.80 -5.20,207.20 -3.20,207.20 -3.20,203.20"/>
    </edge>
    <edge id=":A2_w1" function="walkingarea">
        <lane id=":A2_w1_0" index="0" allow="pedestrian" speed="1.00" length="3.30" width="4.00" shape="3.20,207.20 5.20,207.20 7.20,205.20 7.20,203.20 5.98,203.31 4.98,203.64 4.20,204.20 3.64,204.98 3.31,205.98"/>
    </edge>
    <edge id=":A2_w2" function="walkingarea">
        <lane id=":A2_w2_0" index="0" allow="pedestrian" speed="1.00" length="3.30" width="4.00" shape="7.20,196.80 7.20,194.80 5.20,192.80 3.20,192.80 3.31,194.02 3.64,195.02 4.20,195.80 4.98,196.36 5.98,196.69"/>
    </edge>
    <edge id=":A3_0" function="internal">
        <lane id=":A3_0_0" index="0" disallow="pedestrian" speed="13.89" length="14.40" shape="-1.60,307.20 -1.60,292.80"/>
    </edge>
    <edge id=":A3_1" function="internal">
        <lane id=":A3_1_0" index="0" disallow="pedestrian" speed="8.00" length="5.93" shape="-1.60,307.20 -1.05,303.35 -0.00,301.60"/>
    </edge>
    <edge id=":A3_6" function="internal">
        <lane id=":A3_6_0" index="0" disallow="pedestrian" speed="8.00" length="8.26" shape="-0.00,301.60 0.60,300.60 3.35,298.95 7.20,298.40"/>
    </edge>
    <edge id=":A3_2" function="internal">
        <lane id=":A3_2_0" index="0" disallow="pedestrian" speed="6.51" length="9.03" shape="7.20,301.60 4.75,301.95 3.00,303.00 1.95,304.75 1.60,307.20"/>
    </edge>
    <edge id=":A3_3" function="internal">
        <lane id=":A3_3_0" index="0" disallow="pedestrian" speed="8.00" length="14.19" shape="7.20,301.60 3.35,301.05 0.60,299.40 -1.05,296.65 -1.60,292.80"/>
    </edge>
    <edge id=":A3_4" function="internal">
        <lane id=":A3_4_0" index="0" disallow="pedestrian" speed="6.51" length="4.75" shape="1.60,292.80 1.95,295.25 3.00,297.00 3.20,297.12"/>
    </edge>
    <edge id=":A3_5" function="internal">
        <lane id=":A3_5_0" index="0" disallow="pedestrian" speed="13.89" length="14.40" shape="1.60,292.80 1.60,307.20"/>
    </edge>
    <edge id=":A3_7" function="internal">
        <lane id=":A3_7_0" index="0" disallow="pedestrian" speed="6.51" length="4.28" shape="3.20,297.12 4.75,298.05 7.20,298.40"/>
    </edge>
    <edge id=":A3_c0" function="crossing" crossingEdges="A3A4 A4A3">
        <lane id=":A3_c0_0" index="0" allow="pedestrian" speed="1.00" length="6.40" width="4.00" shape="3.20,305.20 -3.20,305.20"/>
    </edge>
    <edge id=":A3_c1" function="crossing" crossingEdges="A3B3 B3A3">
        <lane id=":A3_c1_0" index="0" allow="pedestrian" speed="1.00" length="6.40" width="4.00" shape="5.20,296.80 5.20,303.20"/>
    </edge>
    <edge id=":A3_c2" function="crossing" crossingEdges="A3A2 A2A3">
        <lane id=":A3_c2_0" index="0" allow="pedestrian" speed="1.00" length="6.40" width="4.00" shape="-3.20,294.80 3.20,294.80"/>
    </edge>
    <edge id=":A3_w0" function="walkingarea">
        <lane id=":A3_w0_0" index="0" allow="pedestrian" speed="1.00" length="9.03" width="4.00" shape="-3.20,296.80 -3.20,292.80 -5.20,292.80 -5.20,307.20 -3.20,307.20 -3.20,303.20"/>
    </edge>
    <edge id=":A3_w1" function="walkingarea">
        <lane id=":A3_w1_0" index="0" allow="pedestrian" speed="1.00" length="3.30" width="4.00" shape="3.20,307.20 5.20,307.20 7.20,305.20 7.20,303.20 5.98,303.31 4.98,303.64 4.20,304.20 3.64,304.98 3.31,305.98"/>
    </edge>
    <edge id=":A3_w2" function="walkingarea">
        <lane id=":A3_w2_0" index="0" allow="pedestrian" speed="1.00" length="3.30" width="4.00" shape="7.20,296.80 7.20,294.80 5.20,292.80 3.20,292.80 3.31,294.02 3.64,295.02 4.20,295.80 4.98,296.36 5.98,296.69"/>
    </edge>
    <edge id=":A4_0" function="internal">
        <lane id=":A4_0_0" index="0" disallow="pedestrian" speed="13.89" length="14.40" shape="-1.60,407.20 -1.60,392.80"/>
    </edge>
    <edge id=":A4_1" function="internal">
        <lane id=":A4_1_0" index="0" disallow="pedestrian" speed="8.00" length="5.93" shape="-1.60,407.20 -1.05,403.35 0.00,401.60"/>
    </edge>
    <edge id=":A4_6" function="internal">
        <lane id=":A4_6_0" index="0" disallow="pedestrian" speed="8.00" length="8.26" shape="0.00,401.60 0.60,400.60 3.35,398.95 7.20,398.40"/>
    </edge>
    <edge id=":A4_2" function="internal">
        <lane id=":A4_2_0" index="0" disallow="pedestrian" speed="6.51" length="9.03" shape="7.20,401.60 4.75,401.95 3.00,403.00 1.95,404.75 1.60,407.20"/>
    </edge>
    <edge id=":A4_3" function="internal">
        <lane id=":A4_3_0" index="0" disallow="pedestrian" speed="8.00" length="14.19" shape="7.20,401.60 3.35,401.05 0.60,399.40 -1.05,396.65 -1.60,392.80"/>
    </edge>
    <edge id=":A4_4" function="internal">
        <lane id=":A4_4_0" index="0" disallow="pedestrian" speed="6.51" length="4.75" shape="1.60,392.80 1.95,395.25 3.00,397.00 3.20,397.12"/>
    </edge>
    <edge id=":A4_5" function="internal">
        <lane id=":A4_5_0" index="0" disallow="pedestrian" speed="13.89" length="14.40" shape="1.60,392.80 1.60,407.20"/>
    </edge>
    <edge id=":A4_7" function="internal">
        <lane id=":A4_7_0" index="0" disallow="pedestrian" speed="6.51" length="4.28" shape="3.20,397.12 4.75,398.05 7.20,398.40"/>
    </edge>
    <edge id=":A4_c0" function="crossing" crossingEdges="A4A5 A5A4">
        <lane id=":A4_c0_0" index="0" allow="pedestrian" speed="1.00" length="6.40" width="4.00" shape="3.20,405.20 -3.20,405.20"/>
    </edge>
    <edge id=":A4_c1" function="crossing" crossingEdges="A4B4 B4A4">
        <lane id=":A4_c1_0" index="0" allow="pedestrian" speed="1.00" length="6.40" width="4.00" shape="5.20,396.80 5.20,403.20"/>
    </edge>
    <edge id=":A4_c2" function="crossing" crossingEdges="A4A3 A3A4">
        <lane id=":A4_c2_0" index="0" allow="pedestrian" speed="1.00" length="6.40" width="4.00" shape="-3.20,394.80 3.20,394.80"/>
    </edge>
    <edge id=":A4_w0" function="walkingarea">
        <lane id=":A4_w0_0" index="0" allow="pedestrian" speed="1.00" length="9.03" width="4.00" shape="-3.20,396.80 -3.20,392.80 -5.20,392.80 -5.20,407.20 -3.20,407.20 -3.20,403.20"/>
    </edge>
    <edge id=":A4_w1" function="walkingarea">
        <lane id=":A4_w1_0" index="0" allow="pedestrian" speed="1.00" length="3.30" width="4.00" shape="3.20,407.20 5.20,407.20 7.20,405.20 7.20,403.20 5.98,403.31 4.98,403.64 4.20,404.20 3.64,404.98 3.31,405.98"/>
    </edge>
    <edge id=":A4_w2" function="walkingarea">
        <lane id=":A4_w2_0" index="0" allow="pedestrian" speed="1.00" length="3.30" width="4.00" shape="7.20,396.80 7.20,394.80 5.20,392.80 3.20,392.80 3.31,394.02 3.64,395.02 4.20,395.80 4.98,396.36 5.98,396.69"/>
    </edge>
    <edge id=":A5_0" function="internal">
        <lane id=":A5_0_0" index="0" disallow="pedestrian" speed="7.10" length="10.97" shape="5.20,501.60 2.22,501.18 0.10,499.90 -1.18,497.77 -1.60,494.80"/>
    </edge>
    <edge id=":A5_1" function="internal">
        <lane id=":A5_1_0" index="0" disallow="pedestrian" speed="5.37" length="5.81" shape="1.60,494.80 1.83,496.37 2.50,497.50 3.63,498.17 5.20,498.40"/>
    </edge>
    <edge id=":A5_c0" function="crossing" crossingEdges="A5B5 B5A5">
        <lane id=":A5_c0_0" index="0" allow="pedestrian" speed="1.00" length="6.40" width="4.00" shape="3.20,496.80 3.20,503.20"/>
    </edge>
    <edge id=":A5_w0" function="walkingarea">
        <lane id=":A5_w0_0" index="0" allow="pedestrian" speed="1.00" length="8.91" width="4.00" shape="-3.20,494.80 -5.20,494.80 5.20,505.20 5.20,503.20 2.63,502.97 0.53,502.27 -1.10,501.10 -2.27,499.47 -2.97,497.37"/>
    </edge>
    <edge id=":A5_w1" function="walkingarea">
        <lane id=":A5_w1_0" index="0" allow="pedestrian" speed="1.00" length="1.96" width="4.00" shape="5.20,496.80 5.20,494.80 5.20,494.80 3.20,494.80 3.26,495.41 3.42,495.91 3.70,496.30 4.09,496.58 4.59,496.74"/>
    </edge>
    <edge id=":B0_0" function="internal">
        <lane id=":B0_0_0" index="0" disallow="pedestrian" speed="6.51" length="9.03" shape="98.40,7.20 98.05,4.75 97.00,3.00 95.25,1.95 92.80,1.60"/>
    </edge>
    <edge id=":B0_1" function="internal">
        <lane id=":B0_1_0" index="0" disallow="pedestrian" speed="8.00" length="14.19" shape="98.40,7.20 98.95,3.35 100.60,0.60 103.35,-1.05 107.20,-1.60"/>
    </edge>
    <edge id=":B0_2" function="internal">
        <lane id=":B0_2_0" index="0" disallow="pedestrian" speed="6.51" length="4.75" shape="107.20,1.60 104.75,1.95 103.00,3.00 102.88,3.20"/>
    </edge>
    <edge id=":B0_3" function="internal">
        <lane id=":B0_3_0" index="0" disallow="pedestrian" speed="13.89" length="14.40" shape="107.20,1.60 92.80,1.60"/>
    </edge>
    <edge id=":B0_6" function="internal">
        <lane id=":B0_6_0" index="0" disallow="pedestrian" speed="6.51" length="4.28" shape="102.88,3.20 101.95,4.75 101.60,7.20"/>
    </edge>
    <edge id=":B0_4" function="internal">
        <lane id=":B0_4_0" index="0" disallow="pedestrian" speed="13.89" length="14.40" shape="92.80,-1.60 107.20,-1.60"/>
    </edge>
    <edge id=":B0_5" function="internal">
        <lane id=":B0_5_0" index="0" disallow="pedestrian" speed="8.00" length="5.93" shape="92.80,-1.60 96.65,-1.05 98.40,0.00"/>
    </edge>
    <edge id=":B0_7" function="internal">
        <lane id=":B0_7_0" index="0" disallow="pedestrian" speed="8.00" length="8.26" shape="98.40,0.00 99.40,0.60 101.05,3.35 101.60,7.20"/>
    </edge>
    <edge id=":B0_c0" function="crossing" crossingEdges="B0B1 B1B0">
        <lane id=":B0_c0_0" index="0" allow="pedestrian" speed="1.00" length="6.40" width="4.00" shape="103.20,5.20 96.80,5.20"/>
    </edge>
    <edge id=":B0_c1" function="crossing" crossingEdges="B0C0 C0B0">
        <lane id=":B0_c1_0" index="0" allow="pedestrian" speed="1.00" length="6.40" width="4.00" shape="105.20,-3.20 105.20,3.20"/>
    </edge>
    <edge id=":B0_c2" function="crossing" crossingEdges="B0A0 A0B0">
        <lane id=":B0_c2_0" index="0" allow="pedestrian" speed="1.00" length="6.40" width="4.00" shape="94.80,3.20 94.80,-3.20"/>
    </edge>
    <edge id=":B0_w0" function="walkingarea">
        <lane id=":B0_w0_0" index="0" allow="pedestrian" speed="1.00" length="3.30" width="4.00" shape="92.80,3.20 92.80,5.20 94.80,7.20 96.80,7.20 96.69,5.98 96.36,4.98 95.80,4.20 95.02,3.64 94.02,3.31"/>
    </edge>
    <edge id=":B0_w1" function="walkingarea">
        <lane id=":B0_w1_0" index="0" allow="pedestrian" speed="1.00" length="3.30" width="4.00" shape="103.20,7.20 105.20,7.20 107.20,5.20 107.20,3.20 105.98,3.31 104.98,3.64 104.20,4.20 103.64,4.98 103.31,5.98"/>
    </edge>
    <edge id=":B0_w2" function="walkingarea">
        <lane id=":B0_w2_0" index="0" allow="pedestrian" speed="1.00" length="9.03" width="4.00" shape="103.20,-3.20 107.20,-3.20 107.20,-5.20 92.80,-5.20 92.80,-3.20 96.80,-3.20"/>
    </edge>
    <edge id=":B1_0" function="internal">
        <lane id=":B1_0_0" index="0" disallow="pedestrian" speed="6.51" length="4.75" shape="98.40,107.20 98.05,104.75 97.00,103.00 96.80,102.88"/>
    </edge>
    <edge id=":B1_1" function="internal">
        <lane id=":B1_1_0" index="0" disallow="pedestrian" speed="13.89" length="14.40" shape="98.40,107.20 98.40,92.80"/>
    </edge>
    <edge id=":B1_2" function="internal">
        <lane id=":B1_2_0" index="0" disallow="pedestrian" speed="8.00" length="5.93" shape="98.40,107.20 98.95,103.35 100.00,101.60"/>
    </edge>
    <edge id=":B1_12" function="internal">
        <lane id=":B1_12_0" index="0" disallow="pedestrian" speed="6.51" length="4.28" shape="96.80,102.88 95.25,101.95 92.80,101.60"/>
    </edge>
    <edge id=":B1_13" function="internal">
        <lane id=":B1_13_0" index="0" disallow="pedestrian" speed="8.00" length="8.26" shape="100.00,101.60 100.60,100.60 103.35,98.95 107.20,98.40"/>
    </edge>
    <edge id=":B1_3" function="internal">
        <lane id=":B1_3_0" index="0" disallow="pedestrian" speed="6.51" length="9.03" shape="107.20,101.60 104.75,101.95 103.00,103.00 101.95,104.75 101.60,107.20"/>
    </edge>
    <edge id=":B1_4" function="internal">
        <lane id=":B1_4_0" index="0" disallow="pedestrian" speed="13.89" length="14.40" shape="107.20,101.60 92.80,101.60"/>
    </edge>
    <edge id=":B1_5" function="internal">
        <lane id=":B1_5_0" index="0" disallow="pedestrian" speed="8.00" length="14.19" shape="107.20,101.60 103.35,101.05 100.60,99.40 98.95,96.65 98.40,92.80"/>
    </edge>
    <edge id=":B1_6" function="internal">
        <lane id=":B1_6_0" index="0" disallow="pedestrian" speed="6.51" length="4.75" shape="101.60,92.80 101.95,95.25 103.00,97.00 103.20,97.12"/>
    </edge>
    <edge id=":B1_7" function="internal">
        <lane id=":B1_7_0" index="0" disallow="pedestrian" speed="13.89" length="14.40" shape="101.60,92.80 101.60,107.20"/>
    </edge>
    <edge id=":B1_8" function="internal">
        <lane id=":B1_8_0" index="0" disallow="pedestrian" speed="8.00" length="5.93" shape="101.60,92.80 101.05,96.65 100.00,98.40"/>
    </edge>
    <edge id=":B1_14" function="internal">
        <lane id=":B1_14_0" index="0" disallow="pedestrian" speed="6.51" length="4.28" shape="103.20,97.12 104.75,98.05 107.20,98.40"/>
    </edge>
    <edge id=":B1_15" function="internal">
        <lane id=":B1_15_0" index="0" disallow="pedestrian" speed="8.00" length="8.26" shape="100.00,98.40 99.40,99.40 96.65,101.05 92.80,101.60"/>
    </edge>
    <edge id=":B1_9" function="internal">
        <lane id=":B1_9_0" index="0" disallow="pedestrian" speed="6.51" length="9.03" shape="92.80,98.40 95.25,98.05 97.00,97.00 98.05,95.25 98.40,92.80"/>
    </edge>
    <edge id=":B1_10" function="internal">
        <lane id=":B1_10_0" index="0" disallow="pedestrian" speed="13.89" length="14.40" shape="92.80,98.40 107.20,98.40"/>
    </edge>
    <edge id=":B1_11" function="internal">
        <lane id=":B1_11_0" index="0" disallow="pedestrian" speed="8.00" length="14.19" shape="92.80,98.40 96.65,98.95 99.40,100.60 101.05,103.35 101.60,107.20"/>
    </edge>
    <edge id=":B1_c0" function="crossing" crossingEdges="B1B2 B2B1">
        <lane id=":B1_c0_0" index="0" allow="pedestrian" speed="1.00" length="6.40" width="4.00" shape="103.20,105.20 96.80,105.20"/>
    </edge>
    <edge id=":B1_c1" function="crossing" crossingEdges="B1C1 C1B1">
        <lane id=":B1_c1_0" index="0" allow="pedestrian" speed="1.00" length="6.40" width="4.00" shape="105.20,96.80 105.20,103.20"/>
    </edge>
    <edge id=":B1_c2" function="crossing" crossingEdges="B1B0 B0B1">
        <lane id=":B1_c2_0" index="0" allow="pedestrian" speed="1.00" length="6.40" width="4.00" shape="96.80,94.80 103.20,94.80"/>
    </edge>
    <edge id=":B1_c3" function="crossing" crossingEdges="B1A1 A1B1">
        <lane id=":B1_c3_0" index="0" allow="pedestrian" speed="1.00" length="6.40" width="4.00" shape="94.80,103.20 94.80,96.80"/>
    </edge>
    <edge id=":B1_w0" function="walkingarea">
        <lane id=":B1_w0_0" index="0" allow="pedestrian" speed="1.00" length="3.30" width="4.00" shape="92.80,103.20 92.80,105.20 94.80,107.20 96.80,107.20 96.69,105.98 96.36,104.98 95.80,104.20 95.02,103.64 94.02,103.31"/>
    </edge>
    <edge id=":B1_w1" function="walkingarea">
        <lane id=":B1_w1_0" index="0" allow="pedestrian" speed="1.00" length="3.30" width="4.00" shape="103.20,107.20 105.20,107.20 107.20,105.20 107.20,103.20 105.98,103.31 104.98,103.64 104.20,104.20 103.64,104.98 103.31,105.98"/>
    </edge>
    <edge id=":B1_w2" function="walkingarea">
        <lane id=":B1_w2_0" index="0" allow="pedestrian" speed="1.00" length="3.30" width="4.00" shape="107.20,96.80 107.20,94.80 105.20,92.80 103.20,92.80 103.31,94.02 103.64,95.02 104.20,95.80 104.98,96.36 105.98,96.69"/>
    </edge>
    <edge id=":B1_w3" function="walkingarea">
        <lane id=":B1_w3_0" index="0" allow="pedestrian" speed="1.00" length="3.30" width="4.00" shape="96.80,92.80 94.80,92.80 92.80,94.80 92.80,96.80 94.02,96.69 95.02,96.36 95.80,95.80 96.36,95.02 96.69,94.02"/>
    </edge>
    <edge id=":B2_0" function="internal">
        <lane id=":B2_0_0" index="0" disallow="pedestrian" speed="6.51" length="4.75" shape="98.40,207.20 98.05,204.75 97.00,203.00 96.80,202.88"/>
    </edge>
    <edge id=":B2_1" function="internal">
        <lane id=":B2_1_0" index="0" disallow="pedestrian" speed="13.89" length="14.40" shape="98.40,207.20 98.40,192.80"/>
    </edge>
    <edge id=":B2_2" function="internal">
        <lane id=":B2_2_0" index="0" disallow="pedestrian" speed="8.00" length="5.93" shape="98.40,207.20 98.95,203.35 100.00,201.60"/>
    </edge>
    <edge id=":B2_12" function="internal">
        <lane id=":B2_12_0" index="0" disallow="pedestrian" speed="6.51" length="4.28" shape="96.80,202.88 95.25,201.95 92.80,201.60"/>
    </edge>
    <edge id=":B2_13" function="internal">
        <lane id=":B2_13_0" index="0" disallow="pedestrian" speed="8.00" length="8.26" shape="100.00,201.60 100.60,200.60 103.35,198.95 107.20,198.40"/>
    </edge>
    <edge id=":B2_3" function="internal">
        <lane id=":B2_3_0" index="0" disallow="pedestrian" speed="6.51" length="9.03" shape="107.20,201.60 104.75,201.95 103.00,203.00 101.95,204.75 101.60,207.20"/>
    </edge>
    <edge id=":B2_4" function="internal">
        <lane id=":B2_4_0" index="0" disallow="pedestrian" speed="13.89" length="14.40" shape="107.20,201.60 92.80,201.60"/>
    </edge>
    <edge id=":B2_5" function="internal">
        <lane id=":B2_5_0" index="0" disallow="pedestrian" speed="8.00" length="14.19" shape="107.20,201.60 103.35,201.05 100.60,199.40 98.95,196.65 98.40,192.80"/>
    </edge>
    <edge id=":B2_6" function="internal">
        <lane id=":B2_6_0" index="0" disallow="pedestrian" speed="6.51" length="4.75" shape="101.60,192.80 101.95,195.25 103.00,197.00 103.20,197.12"/>
    </edge>
    <edge id=":B2_7" function="internal">
        <lane id=":B2_7_0" index="0" disallow="pedestrian" speed="13.89" length="14.40" shape="101.60,192.80 101.60,207.20"/>
    </edge>
    <edge id=":B2_8" function="internal">
        <lane id=":B2_8_0" index="0" disallow="pedestrian" speed="8.00" length="5.93" shape="101.60,192.80 101.05,196.65 100.00,198.40"/>
    </edge>
    <edge id=":B2_14" function="internal">
        <lane id=":B2_14_0" index="0" disallow="pedestrian" speed="6.51" length="4.28" shape="103.20,197.12 104.75,198.05 107.20,198.40"/>
    </edge>
    <edge id=":B2_15" function="internal">
        <lane id=":B2_15_0" index="0" disallow="pedestrian" speed="8.00" length="8.26" shape="100.00,198.40 99.40,199.40 96.65,201.05 92.80,201.60"/>
    </edge>
    <edge id=":B2_9" function="internal">
        <lane id=":B2_9_0" index="0" disallow="pedestrian" speed="6.51" length="9.03" shape="92.80,198.40 95.25,198.05 97.00,197.00 98.05,195.25 98.40,192.80"/>
    </edge>
    <edge id=":B2_10" function="internal">
        <lane id=":B2_10_0" index="0" disallow="pedestrian" speed="13.89" length="14.40" shape="92.80,198.40 107.20,198.40"/>
    </edge>
    <edge id=":B2_11" function="internal">
        <lane id=":B2_11_0" index="0" disallow="pedestrian" speed="8.00" length="14.19" shape="92.80,198.40 96.65,198.95 99.40,200.60 101.05,203.35 101.60,207.20"/>
    </edge>
    <edge id=":B2_c0" function="crossing" crossingEdges="B2B3 B3B2">
        <lane id=":B2_c0_0" index="0" allow="pedestrian" speed="1.00" length="6.40" width="4.00" shape="103.20,205.20 96.80,205.20"/>
    </edge>
    <edge id=":B2_c1" function="crossing" crossingEdges="B2C2 C2B2">
        <lane id=":B2_c1_0" index="0" allow="pedestrian" speed="1.00" length="6.40" width="4.00" shape="105.20,196.80 105.20,203.20"/>
    </edge>
    <edge id=":B2_c2" function="crossing" crossingEdges="B2B1 B1B2">
        <lane id=":B2_c2_0" index="0" allow="pedestrian" speed="1.00" length="6.40" width="4.00" shape="96.80,194.80 103.20,194.80"/>
    </edge>
    <edge id=":B2_c3" function="crossing" crossingEdges="B2A2 A2B2">
        <lane id=":B2_c3_0" index="0" allow="pedestrian" speed="1.00" length="6.40" width="4.00" shape="94.80,203.20 94.80,196.80"/>
    </edge>
    <edge id=":B2_w0" function="walkingarea">
        <lane id=":B2_w0_0" index="0" allow="pedestrian" speed="1.00" length="3.30" width="4.00" shape="92.80,203.20 92.80,205.20 94.80,207.20 96.80,207.20 96.69,205.98 96.36,204.98 95.80,204.20 95.02,203.64 94.02,203.31"/>
    </edge>
    <edge id=":B2_w1" function="walkingarea">
        <lane id=":B2_w1_0" index="0" allow="pedestrian" speed="1.00" length="3.30" width="4.00" shape="103.20,207.20 105.20,207.20 107.20,205.20 107.20,203.20 105.98,203.31 104.98,203.64 104.20,204.20 103.64,204.98 103.31,205.98"/>
    </edge>
    <edge id=":B2_w2" function="walkingarea">
        <lane id=":B2_w2_0" index="0" allow="pedestrian" speed="1.00" length="3.30" width="4.00" shape="107.20,196.80 107.20,194.80 105.20,192.80 103.20,192.80 103.31,194.02 103.64,195.02 104.20,195.80 104.98,196.36 105.98,196.69"/>
    </edge>
    <edge id=":B2_w3" function="walkingarea">
        <lane id=":B2_w3_0" index="0" allow="pedestrian" speed="1.00" length="3.30" width="4.00" shape="96.80,192.80 94.80,192.80 92.80,194.80 92.80,196.80 94.02,196.69 95.02,196.36 95.80,195.80 96.36,195.02 96.69,194.02"/>
    </edge>
    <edge id=":B3_0" function="internal">
        <lane id=":B3_0_0" index="0" disallow="pedestrian" speed="6.51" length="4.75" shape="98.40,307.20 98.05,304.75 97.00,303.00 96.80,302.88"/>
    </edge>
    <edge id=":B3_1" function="internal">
        <lane id=":B3_1_0" index="0" disallow="pedestrian" speed="13.89" length="14.40" shape="98.40,307.20 98.40,292.80"/>
    </edge>
    <edge id=":B3_2" function="internal">
        <lane id=":B3_2_0" index="0" disallow="pedestrian" speed="8.00" length="5.93" shape="98.40,307.20 98.95,303.35 100.00,301.60"/>
    </edge>
    <edge id=":B3_12" function="internal">
        <lane id=":B3_12_0" index="0" disallow="pedestrian" speed="6.51" length="4.28" shape="96.80,302.88 95.25,301.95 92.80,301.60"/>
    </edge>
    <edge id=":B3_13" function="internal">
        <lane id=":B3_13_0" index="0" disallow="pedestrian" speed="8.00" length="8.26" shape="100.00,301.60 100.60,300.60 103.35,298.95 107.20,298.40"/>
    </edge>
    <edge id=":B3_3" function="internal">
        <lane id=":B3_3_0" index="0" disallow="pedestrian" speed="6.51" length="9.03" shape="107.20,301.60 104.75,301.95 103.00,303.00 101.95,304.75 101.60,307.20"/>
    </edge>
    <edge id=":B3_4" function="internal">