<?xml version="1.0" encoding="UTF-8"?>

<!-- generated on Sat Dec 21 17:53:52 2019 by Eclipse SUMO duarouter Version 1.2.0
<configuration xmlns:xsi="http://www.w3.org/2001/XMLSchema-instance" xsi:noNamespaceSchemaLocation="http://sumo.dlr.de/xsd/duarouterConfiguration.xsd">

    <input>
        <net-file value="net.net.xml"/>
        <route-files value="trips.trips.xml"/>
    </input>

    <output>
        <output-file value="ped.rou.xml"/>
        <alternatives-output value="ped.rou.alt.xml"/>
    </output>

    <time>
        <begin value="0.0"/>
        <end value="5.0"/>
    </time>

    <report>
        <no-warnings value="true"/>
        <ignore-errors value="true"/>
        <no-step-log value="true"/>
    </report>

</configuration>
-->

<routes xmlns:xsi="http://www.w3.org/2001/XMLSchema-instance" xsi:noNamespaceSchemaLocation="http://sumo.dlr.de/xsd/routes_file.xsd">
    <person id="p0" depart="0.00" departPos="random">
        <walk edges="D3D2 D2D1 C1D1 C0C1 B0C0"/>
    </person>
    <person id="p1" depart="0.01" departPos="random">
        <walk edges="B2B1 B2C2 C2D2 D2E2 E2F2 F2F3 F3F4"/>
    </person>
    <person id="p2" depart="0.02" departPos="random">
        <walk edges="E0D0 E1E0 E2E1 E3E2 F3E3 F4F3"/>
    </person>
    <person id="p3" depart="0.03" departPos="random">
        <walk edges="D1D0 D2D1 D3D2 D4D3 D4C4 C4C5 C5B5 B5A5"/>
    </person>
    <person id="p4" depart="0.04" departPos="random">
        <walk edges="D1D0 D2D1 D3D2 D4D3 D5D4 C5D5"/>
    </person>
    <person id="p5" depart="0.05" departPos="random">
        <walk edges="A2A3 A3A4 B4A4 C4B4 C4C5 C5D5"/>
    </person>
    <person id="p6" depart="0.06" departPos="random">
        <walk edges="B0B1 B1B2 B2B3 B3B4 C4B4 D4C4"/>
    </person>
    <person id="p7" depart="0.07" departPos="random">
        <walk edges="A4A3 A4B4 B4C4 C4D4 D4E4 E4E3"/>
    </person>
    <person id="p8" depart="0.08" departPos="random">
        <walk edges="B5B4 B4B3 B3B2 B2B1 A1B1"/>
    </person>
    <person id="p9" depart="0.09" departPos="random">
        <walk edges="C4C3 C2C3 C1C2 C0C1"/>
    </person>
    <person id="p10" depart="0.10" departPos="random">
        <walk edges="D1D0 D2D1 D3D2 D4D3 D5D4 C5D5"/>
    </person>
    <person id="p11" depart="0.11" departPos="random">
        <walk edges="D1C1 C1C2 C2C3 C3C4 C4B4 B4A4"/>
    </person>
    <person id="p12" depart="0.12" departPos="random">
        <walk edges="B0B1 B1B2 B2B3 B3B4 C4B4 D4C4 D4D5"/>
    </person>
    <person id="p13" depart="0.13" departPos="random">
        <walk edges="A1A2 B2A2 C2B2 D2C2 E2D2"/>
    </person>
    <person id="p14" depart="0.14" departPos="random">
        <walk edges="B2C2 D2C2 E2D2 F2E2 F3F2"/>
    </person>
    <person id="p15" depart="0.15" departPos="random">
        <walk edges="F1E1 E1E2 E2E3 E3E4 E4D4 D4C4"/>
    </person>
    <person id="p16" depart="0.16" departPos="random">
        <walk edges="C4B4 B3B4 B2B3 B1B2 B1B0 B0A0"/>
    </person>
    <person id="p17" depart="0.17" departPos="random">
        <walk edges="A1A2 B1A1 C1B1 D1C1 E1D1 E0E1"/>
    </person>
    <person id="p18" depart="0.18" departPos="random">
        <walk edges="B5B4 B4A4 A4A3 A3A2 A2A1 A1A0"/>
    </person>
    <person id="p19" depart="0.19" departPos="random">
        <walk edges="F3F2 F2F1 E1F1 D1E1 C1D1 C1C0"/>
    </person>
    <person id="p20" depart="0.20" departPos="random">
        <walk edges="C3D3 D3E3 E2E3 E1E2 F1E1"/>
    </person>
    <person id="p21" depart="0.21" departPos="random">
        <walk edges="E4D4 D3D4 D2D3 D1D2 C1D1 B1C1 B1B0"/>
    </person>
    <person id="p22" depart="0.22" departPos="random">
        <walk edges="A3A2 A2A1 A1B1 B1C1 C1D1 D0D1"/>
    </person>
    <person id="p23" depart="0.23" departPos="random">
        <walk edges="B1B0 B2B1 B3B2 B4B3 B5B4"/>
    </person>
    <person id="p24" depart="0.24" departPos="random">
        <walk edges="C1D1 D2D1 D3D2 D4D3 D5D4"/>
    </person>
    <person id="p25" depart="0.25" departPos="random">
        <walk edges="D0E0 C0D0 B0C0 A0B0 A1A0 A2A1 A3A2 A3A4"/>
    </person>
    <person id="p26" depart="0.26" departPos="random">
        <walk edges="F4E4 F3F4 F2F3 F1F2 F0F1 E0F0 D0E0"/>
    </person>
    <person id="p27" depart="0.27" departPos="random">
        <walk edges="E1F1 E2E1 E2D2 D2C2 C2B2 B2A2 A2A3"/>
    </person>
    <person id="p28" depart="0.28" departPos="random">
        <walk edges="C0B0 C1C0 C2C1 C3C2 C4C3 C4B4"/>
    </person>
    <person id="p29" depart="0.29" departPos="random">
        <walk edges="B4A4 B4C4 C4D4 D4E4 E3E4 F3E3"/>
    </person>
    <person id="p30" depart="0.30" departPos="random">
        <walk edges="B3A3 B3C3 C3D3 D2D3 D1D2 E1D1"/>
    </person>
    <person id="p31" depart="0.31" departPos="random">
        <walk edges="E3F3 E2E3 E1E2 E0E1 D0E0 C0D0 B0C0"/>
    </person>
    <person id="p32" depart="0.32" departPos="random">
        <walk edges="C5D5 D5D4 D4D3 D3D2 D2D1 D1C1"/>
    </person>
    <person id="p33" depart="0.33" departPos="random">
        <walk edges="F1E1 E1D1 D1C1 C2C1 B2C2"/>
    </person>
    <person id="p34" depart="0.34" departPos="random">
        <walk edges="A0B0 B0B1 B1B2 C2B2 C3C2"/>
    </person>
    <person id="p35" depart="0.35" departPos="random">
        <walk edges="F2E2 E2E3 E3E4 E4D4 D4C4 C4C5"/>
    </person>
    <person id="p36" depart="0.36" departPos="random">
        <walk edges="D1D2 D2D3 D3D4 E4D4 E5E4"/>
    </person>
    <person id="p37" depart="0.37" departPos="random">
        <walk edges="D4C4 C4B4 B4A4 A4A3 A3A2 A2A1 A1A0"/>
    </person>
    <person id="p38" depart="0.38" departPos="random">
        <walk edges="C5B5 B5A5 A5A4 A4A3 A3A2 A1A2"/>
    </person>
    <person id="p39" depart="0.39" departPos="random">
        <walk edges="F0E0 E0E1 E1E2 E3E2 D3E3"/>
    </person>
    <person id="p40" depart="0.40" departPos="random">
        <walk edges="D1C1 C1C2 C2C3 C3B3 B4B3 A4B4"/>
    </person>
    <person id="p41" depart="0.41" departPos="random">
        <walk edges="E0E1 E1F1 F1F2 F2F3 F3F4 F4F5"/>
    </person>
    <person id="p42" depart="0.42" departPos="random">
        <walk edges="B2C2 C2D2 D2E2 E1E2 E1F1 F1F0"/>
    </person>
    <person id="p43" depart="0.43" departPos="random">
        <walk edges="D1D2 D2D3 D3D4 D4C4 C4B4 B4B5"/>
    </person>
    <person id="p44" depart="0.44" departPos="random">
        <walk edges="E0F0 D0E0 C0D0 B0C0 B1B0 B1A1 A1A2"/>
    </person>
    <person id="p45" depart="0.45" departPos="random">
        <walk edges="A0A1 A1A2 B2A2 C2B2 C2C3 C3D3"/>
    </person>
    <person id="p46" depart="0.46" departPos="random">
        <walk edges="D2E2 D3D2 D4D3 D4C4 C5C4 B5C5"/>
    </person>
    <person id="p47" depart="0.47" departPos="random">
        <walk edges="E0D0 D0D1 D1D2 D2D3 D3D4 D4C4"/>
    </person>
    <person id="p48" depart="0.48" departPos="random">
        <walk edges="E1E0 E2E1 E3E2 E4E3 E4D4 D4C4 C5C4"/>
    </person>
    <person id="p49" depart="0.49" departPos="random">
        <walk edges="E2E1 D2E2 C2D2 B2C2 A2B2 A3A2 A4A3"/>
    </person>
    <person id="p50" depart="0.50" departPos="random">
        <walk edges="C1D1 D2D1 D3D2 E3D3 F3E3 F4F3"/>
    </person>
    <person id="p51" depart="0.51" departPos="random">
        <walk edges="A1B1 B2B1 B3B2 B4B3 B5B4"/>
    </person>
    <person id="p52" depart="0.52" departPos="random">
        <walk edges="D5E5 E4E5 E3E4 E2E3 E2F2 F2F1"/>
    </person>
    <person id="p53" depart="0.53" departPos="random">
        <walk edges="F0E0 E0E1 E1E2 E2D2 D3D2"/>
    </person>
    <person id="p54" depart="0.54" departPos="random">
        <walk edges="B1C1 B2B1 B3B2 B4B3 B5B4"/>
    </person>
    <person id="p55" depart="0.55" departPos="random">
        <walk edges="C3C2 D2C2 D1D2 D0D1 E0D0"/>
    </person>
    <person id="p56" depart="0.56" departPos="random">
        <walk edges="D2D1 C1D1 C0C1 B0C0 A0B0"/>
    </person>
    <person id="p57" depart="0.57" departPos="random">
        <walk edges="D1C1 C1C2 C2C3 C3C4 C4C5 C5B5 B5A5"/>
    </person>
    <person id="p58" depart="0.58" departPos="random">
        <walk edges="D5C5 C5C4 C4C3 C3C2 C2C1 B1C1"/>
    </person>
    <person id="p59" depart="0.59" departPos="random">
        <walk edges="E3E2 E2E1 D1E1 C1D1 C1C0 C0B0"/>
    </person>
    <person id="p60" depart="0.60" departPos="random">
        <walk edges="C4B4 B3B4 B2B3 A2B2 A1A2"/>
    </person>
    <person id="p61" depart="0.61" departPos="random">
        <walk edges="A4B4 B3B4 B2B3 B1B2 B0B1 C0B0"/>
    </person>
    <person id="p62" depart="0.62" departPos="random">
        <walk edges="B4B3 C3B3 D3C3 D2D3 D2E2 E2E1"/>
    </person>
    <person id="p63" depart="0.63" departPos="random">
        <walk edges="C4B4 B4A4 A4A3 A3A2 A2A1 A1A0"/>
    </person>
    <person id="p64" depart="0.64" departPos="random">
        <walk edges="C1D1 D1E1 E1F1 F1F2 F2F3 F3F4"/>
    </person>
    <person id="p65" depart="0.65" departPos="random">
        <walk edges="C2C3 C3C4 D4C4 E4D4 F4E4"/>
    </person>
    <person id="p66" depart="0.66" departPos="random">
        <walk edges="E1D1 D1D2 D2D3 D3D4 D4D5 D5C5"/>
    </person>
    <person id="p67" depart="0.67" departPos="random">
        <walk edges="C1C0 C2C1 C3C2 C4C3 C5C4 C5B5"/>
    </person>
    <person id="p68" depart="0.68" departPos="random">
        <walk edges="C5D5 C4C5 C3C4 C2C3 C1C2 C1C0"/>
    </person>
    <person id="p69" depart="0.69" departPos="random">
        <walk edges="B4C4 C4D4 D4E4 E3E4 E2E3 E1E2 E1F1"/>
    </person>
    <person id="p70" depart="0.70" departPos="random">
        <walk edges="F3F4 E3F3 D3E3 C3D3 B3C3 B2B3"/>
    </person>
    <person id="p71" depart="0.71" departPos="random">
        <walk edges="E5E4 D4E4 C4D4 B4C4 A4B4 A3A4"/>
    </person>
    <person id="p72" depart="0.72" departPos="random">
        <walk edges="B1C1 C2C1 C3C2 C4C3 D4C4 D4D5"/>
    </person>
    <person id="p73" depart="0.73" departPos="random">
        <walk edges="C4C5 C4B4 B4A4 A4A3 A3A2 A2A1 A1A0"/>
    </person>
    <person id="p74" depart="0.74" departPos="random">
        <walk edges="B2B3 C3B3 D3C3 E3D3 F3E3 F4F3"/>
    </person>
    <person id="p75" depart="0.75" departPos="random">
        <walk edges="D2D3 D3D4 D4D5 D5C5 C5B5 B5A5"/>
    </person>
    <person id="p76" depart="0.76" departPos="random">
        <walk edges="F4E4 E3E4 E2E3 D2E2 C2D2 B2C2"/>
    </person>
    <person id="p77" depart="0.77" departPos="random">
        <walk edges="B5A5 C5B5 C4C5 C3C4 C2C3 C1C2"/>
    </person>
    <person id="p78" depart="0.78" departPos="random">
        <walk edges="A4A5 B4A4 C4B4 D4C4 E4D4 E3E4"/>
    </person>
    <person id="p79" depart="0.79" departPos="random">
        <walk edges="E3E4 E3E2 E2E1 D1E1 C1D1 B1C1 B1B0"/>
    </person>
    <person id="p80" depart="0.80" departPos="random">
        <walk edges="E2D2 D2D3 D3D4 D4C4 C5C4"/>
    </person>
    <person id="p81" depart="0.81" departPos="random">
        <walk edges="E4D4 D3D4 D2D3 D1D2 C1D1 C1C0"/>
    </person>
    <person id="p82" depart="0.82" departPos="random">
        <walk edges="E3E4 E4D4 D4C4 C5C4 B5C5"/>
    </person>
    <person id="p83" depart="0.83" departPos="random">
        <walk edges="B4B5 B4B3 B3B2 B2B1 B1B0 B0A0"/>
    </person>
    <person id="p84" depart="0.84" departPos="random">
        <walk edges="E4E5 E4E3 D3E3 C3D3 B3C3 B2B3"/>
    </person>
    <person id="p85" depart="0.85" departPos="random">
        <walk edges="E3F3 D3E3 C3D3 B3C3 A3B3 A4A3 A5A4"/>
    </person>
    <person id="p86" depart="0.86" departPos="random">
        <walk edges="E5D5 D5C5 C5C4 C4C3 C3C2 C2C1 C1B1"/>
    </person>
    <person id="p87" depart="0.87" departPos="random">
        <walk edges="F3F2 F2F1 E1F1 E0E1 D0E0"/>
    </person>
    <person id="p88" depart="0.88" departPos="random">
        <walk edges="F1E1 E1E2 E2D2 D2C2 C2B2 B3B2"/>
    </person>
    <person id="p89" depart="0.89" departPos="random">
        <walk edges="E4E3 E3D3 D3C3 C3B3 B3A3 A3A2 A2A1"/>
    </person>
    <person id="p90" depart="0.90" departPos="random">
        <walk edges="D5D4 E4D4 E3E4 E2E3 E1E2 E1F1"/>
    </person>
    <person id="p91" depart="0.91" departPos="random">
        <walk edges="F1F2 F2E2 E2D2 D3D2 C3D3"/>
    </person>
    <person id="p92" depart="0.92" departPos="random">
        <walk edges="E1D1 E2E1 E3E2 E4E3 E4E5 E5F5"/>
    </person>
    <person id="p93" depart="0.93" departPos="random">
        <walk edges="F0F1 F1F2 F2F3 F3F4 F4F5"/>
    </person>
    <person id="p94" depart="0.94" departPos="random">
        <walk edges="F2E2 E2E3 E3E4 E4E5 E5D5 D5C5"/>
    </person>
    <person id="p95" depart="0.95" departPos="random">
        <walk edges="B1C1 C2C1 C3C2 D3C3 E3D3 E3E4"/>
    </person>
    <person id="p96" depart="0.96" departPos="random">
        <walk edges="F4F3 F3E3 E3D3 D3C3 C3B3 B3A3"/>
    </person>
    <person id="p97" depart="0.97" departPos="random">
        <walk edges="E4E5 E4E3 E3E2 D2E2 C2D2 B2C2 A2B2"/>
    </person>
    <person id="p98" depart="0.98" departPos="random">
        <walk edges="E5D5 D5C5 C5C4 C4C3 C3C2 C2C1 C1B1"/>
    </person>
    <person id="p99" depart="0.99" departPos="random">
        <walk edges="A3A2 A4A3 A5A4 B5A5 C5B5 D5C5"/>
    </person>
    <person id="p100" depart="1.00" departPos="random">
        <walk edges="E2D2 D2D3 D3D4 D4D5 D5C5 C5B5"/>
    </person>
    <person id="p101" depart="1.01" departPos="random">
        <walk edges="B5B4 B4A4 A4A3 A3A2 A2A1 A1A0"/>
    </person>
    <person id="p102" depart="1.02" departPos="random">
        <walk edges="E5E4 E4E3 E3E2 D2E2 D1D2"/>
    </person>
    <person id="p103" depart="1.03" departPos="random">
        <walk edges="F5E5 E5D5 D5D4 D4D3 C3D3"/>
    </person>
    <person id="p104" depart="1.04" departPos="random">
        <walk edges="A5A4 A4A3 A3B3 B2B3 C2B2"/>
    </person>
    <person id="p105" depart="1.05" departPos="random">
        <walk edges="F0E0 E0E1 E1E2 E2E3 E3E4 E4D4"/>
    </person>
    <person id="p106" depart="1.06" departPos="random">
        <walk edges="F0E0 D0E0 C0D0 B0C0"/>
    </person>
    <person id="p107" depart="1.07" departPos="random">
        <walk edges="E0D0 E1E0 E2E1 E3E2 E3E4 E4F4"/>
    </person>
    <person id="p108" depart="1.08" departPos="random">
        <walk edges="F5E5 E5D5 D5C5 B5C5"/>
    </person>
    <person id="p109" depart="1.09" departPos="random">
        <walk edges="E4E3 E3E2 D2E2 C2D2 B2C2 B2B1"/>
    </person>
    <person id="p110" depart="1.10" departPos="random">
        <walk edges="B0B1 B1B2 B2B3 B4B3"/>
    </person>
    <person id="p111" depart="1.11" departPos="random">
        <walk edges="A5B5 B4B5 B3B4 B2B3 B2C2 C2C1"/>
    </person>
    <person id="p112" depart="1.12" departPos="random">
        <walk edges="F4F5 F5E5 E5D5 D5C5 C5B5 B5A5"/>
    </person>
    <person id="p113" depart="1.13" departPos="random">
        <walk edges="A4B4 B4C4 C3C4 C2C3 C1C2 C1D1 D1D0"/>
    </person>
    <person id="p114" depart="1.14" departPos="random">
        <walk edges="E0E1 E1E2 E2D2 D2C2 C2B2 B2A2"/>
    </person>
    <person id="p115" depart="1.15" departPos="random">
        <walk edges="D4D3 D3D2 C2D2 B2C2 B1B2"/>
    </person>
    <person id="p116" depart="1.16" departPos="random">
        <walk edges="B4B5 C4B4 D4C4 E4D4 E3E4 E2E3 E2F2"/>
    </person>
    <person id="p117" depart="1.17" departPos="random">
        <walk edges="A1A0 A2A1 B2A2 C2B2 D2C2 E2D2 E2E3 E3F3"/>
    </person>
    <person id="p118" depart="1.18" departPos="random">
        <walk edges="B0A0 B0C0 C0D0 D0E0 E0F0 F0F1"/>
    </person>
    <person id="p119" depart="1.19" departPos="random">
        <walk edges="D4E4 E4E3 E3E2 E2E1 E1E0 E0D0"/>
    </person>
    <person id="p120" depart="1.20" departPos="random">
        <walk edges="E5D5 E5E4 E4E3 E3E2 E2E1 E1D1"/>
    </person>
    <person id="p121" depart="1.21" departPos="random">
        <walk edges="D5E5 E4E5 F4E4 F3F4 F2F3 F1F2"/>
    </person>
    <person id="p122" depart="1.22" departPos="random">
        <walk edges="E1E2 E0E1 D0E0 C0D0 B0C0 A0B0"/>
    </person>
    <person id="p123" depart="1.23" departPos="random">
        <walk edges="E5F5 E4E5 E3E4 E2E3 D2E2 C2D2 C2C1"/>
    </person>
    <person id="p124" depart="1.24" departPos="random">
        <walk edges="D4E4 D3D4 D2D3 D1D2 D0D1"/>
    </person>
    <person id="p125" depart="1.25" departPos="random">
        <walk edges="A3B3 B3C3 C3D3 D3E3 E3F3"/>
    </person>
    <person id="p126" depart="1.26" departPos="random">
        <walk edges="A2A3 B2A2 C2B2 D2C2 D1D2 E1D1"/>
    </person>
    <person id="p127" depart="1.27" departPos="random">
        <walk edges="F1F2 E2F2 D2E2 C2D2 B2C2"/>
    </person>
    <person id="p128" depart="1.28" departPos="random">
        <walk edges="B5A5 C5B5 C4C5 C3C4 C2C3 C1C2 D1C1"/>
    </person>
    <person id="p129" depart="1.29" departPos="random">
        <walk edges="D1C1 D2D1 D3D2 D4D3 E4D4 E5E4"/>
    </person>
    <person id="p130" depart="1.30" departPos="random">
        <walk edges="B4B5 B3B4 B2B3 B1B2 B0B1 C0B0 C0D0 D0E0"/>
    </person>
    <person id="p131" depart="1.31" departPos="random">
        <walk edges="E0F0 D0E0 D1D0 D2D1 D3D2 C3D3"/>
    </person>
    <person id="p132" depart="1.32" departPos="random">
        <walk edges="C0D0 D0D1 D1D2 D2D3 D3D4 D4D5"/>
    </person>
    <person id="p133" depart="1.33" departPos="random">
        <walk edges="E4D4 D3D4 C3D3 B3C3 B2B3"/>
    </person>
    <person id="p134" depart="1.34" departPos="random">
        <walk edges="A0B0 A1A0 A2A1 A3A2 A3A4 A4B4"/>
    </person>
    <person id="p135" depart="1.35" departPos="random">
        <walk edges="A2A3 B3A3 C3B3 D3C3 E3D3"/>
    </person>
    <person id="p136" depart="1.36" departPos="random">
        <walk edges="E2E3 E1E2 E0E1 D0E0 C0D0 B0C0 A0B0"/>
    </person>
    <person id="p137" depart="1.37" departPos="random">
        <walk edges="A1A2 A3A2 A4A3 A5A4"/>
    </person>
    <person id="p138" depart="1.38" departPos="random">
        <walk edges="B2C2 C2D2 D2E2 E1E2 E1F1 F1F0"/>
    </person>
    <person id="p139" depart="1.39" departPos="random">
        <walk edges="F1F0 E1F1 D1E1 C1D1 B1C1 B0B1"/>
    </person>
    <person id="p140" depart="1.40" departPos="random">
        <walk edges="E3E4 E3D3 D3C3 C3B3 B3A3 A3A2"/>
    </person>
    <person id="p141" depart="1.41" departPos="random">
        <walk edges="F4F3 F2F3 F1F2 F0F1 E0F0 D0E0"/>
    </person>
    <person id="p142" depart="1.42" departPos="random">
        <walk edges="D3C3 C2C3 C1C2 C0C1 B0C0 A0B0"/>
    </person>
    <person id="p143" depart="1.43" departPos="random">
        <walk edges="C1C2 C2C3 C3C4 C4C5 C5D5"/>
    </person>
    <person id="p144" depart="1.44" departPos="random">
        <walk edges="E4D4 D4D5 D5C5 C5B5 B5A5 A5A4"/>
    </person>
    <person id="p145" depart="1.45" departPos="random">
        <walk edges="B4A4 B5B4 C5B5 D5C5 E5D5 F5E5"/>
    </person>
    <person id="p146" depart="1.46" departPos="random">
        <walk edges="B2B3 C2B2 D2C2 E2D2 F2E2"/>
    </person>
    <person id="p147" depart="1.47" departPos="random">
        <walk edges="B0C0 B1B0 B2B1 B3B2 B4B3 A4B4"/>
    </person>
    <person id="p148" depart="1.48" departPos="random">
        <walk edges="C1B1 B1B2 B2B3 B3B4 B5B4 A5B5"/>
    </person>
    <person id="p149" depart="1.49" departPos="random">
        <walk edges="F3E3 D3E3 C3D3 B3C3 B3B2"/>
    </person>
    <person id="p150" depart="1.50" departPos="random">
        <walk edges="E2D2 D2D3 D3D4 D4C4 C5C4 B5C5"/>
    </person>
    <person id="p151" depart="1.51" departPos="random">
        <walk edges="C0D0 C0C1 C1C2 C2C3 C3C4 C4C5"/>
    </person>
    <person id="p152" depart="1.52" departPos="random">
        <walk edges="C1C0 C2C1 C3C2 C4C3 C5C4 D5C5"/>
    </person>
    <person id="p153" depart="1.53" departPos="random">
        <walk edges="D0C0 D1D0 D2D1 D3D2 D4D3 E4D4 F4E4"/>
    </person>
    <person id="p154" depart="1.54" departPos="random">
        <walk edges="A3A4 B3A3 C3B3 C2C3 C1C2 C0C1 D0C0"/>
    </person>
    <person id="p155" depart="1.55" departPos="random">
        <walk edges="C2C3 D2C2 E2D2 E1E2 E0E1 F0E0"/>
    </person>
    <person id="p156" depart="1.56" departPos="random">
        <walk edges="E4E3 E3E2 E2E1 E1E0 D0E0"/>
    </person>
    <person id="p157" depart="1.57" departPos="random">
        <walk edges="C5C4 D4C4 D3D4 D2D3 D2E2 E2E1"/>
    </person>
    <person id="p158" depart="1.58" departPos="random">
        <walk edges="F2F1 F3F2 F4F3 F4E4 E4D4 D5D4"/>
    </person>
    <person id="p159" depart="1.59" departPos="random">
        <walk edges="D4E4 D3D4 D2D3 D1D2 D1D0 D0C0"/>
    </person>
    <person id="p160" depart="1.60" departPos="random">
        <walk edges="E3E4 E4D4 D4C4 C4B4 B5B4 A5B5"/>
    </person>
    <person id="p161" depart="1.61" departPos="random">
        <walk edges="B2B3 B3B4 C4B4 D4C4 E4D4 F4E4"/>
    </person>
    <person id="p162" depart="1.62" departPos="random">
        <walk edges="B0C0 C0D0 D0E0 F0E0"/>
    </person>
    <person id="p163" depart="1.63" departPos="random">
        <walk edges="E3D3 D3C3 C3B3 B3A3 A3A2 A2A1"/>
    </person>
    <person id="p164" depart="1.64" departPos="random">
        <walk edges="A1B1 B2B1 B3B2 C3B3 C3C4 C4D4"/>
    </person>
    <person id="p165" depart="1.65" departPos="random">
        <walk edges="E4E3 E3E2 D2E2 C2D2 C2C1 C1B1"/>
    </person>
    <person id="p166" depart="1.66" departPos="random">
        <walk edges="C4B4 B4A4 A4A3 A3A2 A2A1 A1A0 A0B0"/>
    </person>
    <person id="p167" depart="1.67" departPos="random">
        <walk edges="C1C0 C2C1 C3C2 C4C3 C5C4 C5B5"/>
    </person>
    <person id="p168" depart="1.68" departPos="random">
        <walk edges="A3B3 B4B3 B5B4 C5B5 D5C5"/>
    </person>
    <person id="p169" depart="1.69" departPos="random">
        <walk edges="E2F2 E3E2 E4E3 E4D4 D4C4 C5C4"/>
    </person>
    <person id="p170" depart="1.70" departPos="random">
        <walk edges="B5A5 C5B5 D5C5 E5D5 E4E5 E4F4 F4F3"/>
    </person>
    <person id="p171" depart="1.71" departPos="random">
        <walk edges="B5C5 D5C5 E5D5 F5E5 F4F5 F3F4"/>
    </person>
    <person id="p172" depart="1.72" departPos="random">
        <walk edges="C3C2 D2C2 E2D2 E1E2 E1F1 F1F0"/>
    </person>
    <person id="p173" depart="1.73" departPos="random">
        <walk edges="E5E4 E4E3 D3E3 C3D3 B3C3 A3B3"/>
    </person>
    <person id="p174" depart="1.74" departPos="random">
        <walk edges="F0E0 E0E1 E1D1 D1C1 C1B1 B1B2"/>
    </person>
    <person id="p175" depart="1.75" departPos="random">
        <walk edges="C0D0 D0E0 E0E1 F1E1 F2F1"/>
    </person>
    <person id="p176" depart="1.76" departPos="random">
        <walk edges="D1D0 D2D1 D3D2 D3C3 C3B3 B4B3 A4B4"/>
    </person>
    <person id="p177" depart="1.77" departPos="random">
        <walk edges="B5B4 C4B4 C3C4 C2C3 C1C2 C1D1 D1D0"/>
    </person>
    <person id="p178" depart="1.78" departPos="random">
        <walk edges="B0C0 C1C0 C2C1 C3C2 C4C3"/>
    </person>
    <person id="p179" depart="1.79" departPos="random">
        <walk edges="B2B3 B3B4 C4B4 D4C4 E4D4 F4E4"/>
    </person>
    <person id="p180" depart="1.80" departPos="random">
        <walk edges="C0B0 B1B0 A1B1 A2A1 A3A2 A4A3"/>
    </person>
    <person id="p181" depart="1.81" departPos="random">
        <walk edges="D2C2 C2C3 C3C4 C4B4 B4A4 A4A5"/>
    </person>
    <person id="p182" depart="1.82" departPos="random">
        <walk edges="E2E3 E2E1 D1E1 C1D1 B1C1 B1B0 B0A0"/>
    </person>
    <person id="p183" depart="1.83" departPos="random">
        <walk edges="B3B2 C2B2 D2C2 E2D2 E1E2 E1F1"/>
    </person>
    <person id="p184" depart="1.84" departPos="random">
        <walk edges="C5C4 C4C3 C3C2 C2C1 C1C0"/>
    </person>
    <person id="p185" depart="1.85" departPos="random">
        <walk edges="F0E0 E0E1 E1E2 E2E3 E3D3 D4D3"/>
    </person>
    <person id="p186" depart="1.86" departPos="random">
        <walk edges="E1E2 D1E1 C1D1 B1C1 A1B1 A0A1"/>
    </person>
    <person id="p187" depart="1.87" departPos="random">
        <walk edges="E2D2 D1D2 D0D1 C0D0 B0C0 A0B0"/>
    </person>
    <person id="p188" depart="1.88" departPos="random">
        <walk edges="F3E3 E3D3 D3C3 C3B3 B3B4"/>
    </person>
    <person id="p189" depart="1.89" departPos="random">
        <walk edges="E3F3 E3E4 E4E5 E5D5 D5C5 C5B5 B5A5"/>
    </person>
    <person id="p190" depart="1.90" departPos="random">
        <walk edges="B2B1 B2C2 C2D2 D2E2 E2F2 F2F1"/>
    </person>
    <person id="p191" depart="1.91" departPos="random">
        <walk edges="B3C3 C3D3 D3E3 E3F3 F2F3"/>
    </person>
    <person id="p192" depart="1.92" departPos="random">
        <walk edges="F2E2 E2E3 E3E4 E4D4 D4C4 C4B4 B4A4"/>
    </person>
    <person id="p193" depart="1.93" departPos="random">
        <walk edges="C1B1 C2C1 C3C2 C4C3 C5C4 D5C5 E5D5"/>
    </person>
    <person id="p194" depart="1.94" departPos="random">
        <walk edges="C2C1 C2C3 C3C4 D4C4 E4D4 F4E4"/>
    </person>
    <person id="p195" depart="1.95" departPos="random">
        <walk edges="E4E3 E3E2 E2E1 E1E0 E0F0"/>
    </person>
    <person id="p196" depart="1.96" departPos="random">
        <walk edges="E3E2 D3E3 C3D3 B3C3 A3B3"/>
    </person>
    <person id="p197" depart="1.97" departPos="random">
        <walk edges="E1E2 E2D2 D2C2 C3C2 B3C3"/>
    </person>
    <person id="p198" depart="1.98" departPos="random">
        <walk edges="A1A2 A2A3 A3A4 B4A4 B5B4"/>
    </person>
    <person id="p199" depart="1.99" departPos="random">
        <walk edges="B5C5 C4C5 C3C4 C2C3 C1C2 D1C1"/>
    </person>
    <person id="p200" depart="2.00" departPos="random">
        <walk edges="B0B1 C1B1 D1C1 E1D1 F1E1"/>
    </person>
    <person id="p201" depart="2.01" departPos="random">
        <walk edges="E3E4 E4E5 E5D5 D5C5 C5B5 B5A5 A5A4"/>
    </person>
    <person id="p202" depart="2.02" departPos="random">
        <walk edges="C0B0 C1C0 C2C1 C3C2 D3C3 E3D3 E3E4 E4F4"/>
    </person>
    <person id="p203" depart="2.03" departPos="random">
        <walk edges="C5C4 D4C4 D3D4 D2D3 D2E2 E2E1"/>
    </person>
    <person id="p204" depart="2.04" departPos="random">
        <walk edges="B4A4 B4C4 C4D4 D4E4 E3E4 F3E3"/>
    </person>
    <person id="p205" depart="2.05" departPos="random">
        <walk edges="A4B4 B4C4 C4D4 D3D4 D2D3"/>
    </person>
    <person id="p206" depart="2.06" departPos="random">
        <walk edges="E4F4 E3E4 D3E3 C3D3 B3C3 B3B2 B2A2"/>
    </person>
    <person id="p207" depart="2.07" departPos="random">
        <walk edges="C1B1 B1B2 B2B3 B4B3 A4B4"/>
    </person>
    <person id="p208" depart="2.08" departPos="random">
        <walk edges="E5D5 E4E5 E3E4 E2E3 E1E2 F1E1"/>
    </person>
    <person id="p209" depart="2.09" departPos="random">
        <walk edges="B1C1 A1B1 A2A1 A3A2 A4A3 A5A4"/>
    </person>
    <person id="p210" depart="2.10" departPos="random">
        <walk edges="D2D1 C1D1 B1C1 A1B1 A0A1"/>
    </person>
    <person id="p211" depart="2.11" departPos="random">
        <walk edges="E1E0 E2E1 E3E2 E3D3 D3C3 C3B3 B3A3"/>
    </person>
    <person id="p212" depart="2.12" departPos="random">
        <walk edges="F3F4 F4E4 E4D4 D4C4 C4B4 B4B5"/>
    </person>
    <person id="p213" depart="2.13" departPos="random">
        <walk edges="E1F1 D1E1 C1D1 B1C1 A1B1 A2A1 A3A2"/>
    </person>
    <person id="p214" depart="2.14" departPos="random">
        <walk edges="B1B0 B2B1 B3B2 B4B3 B5B4 C5B5"/>
    </person>
    <person id="p215" depart="2.15" departPos="random">
        <walk edges="E3D3 D3C3 C3B3 B3A3 A3A2 A2A1 A1A0"/>
    </person>
    <person id="p216" depart="2.16" departPos="random">
        <walk edges="E3E4 E3E2 E2E1 D1E1 C1D1 B1C1 B0B1"/>
    </person>
    <person id="p217" depart="2.17" departPos="random">
        <walk edges="D3C3 C2C3 B2C2 A2B2 A1A2"/>
    </person>
    <person id="p218" depart="2.18" departPos="random">
        <walk edges="F1E1 E1E2 E2E3 E3E4 E5E4 D5E5"/>
    </person>
    <person id="p219" depart="2.19" departPos="random">
        <walk edges="D5C5 C5B5 B5A5 A5A4 A4A3 A3A2 A2A1"/>
    </person>
    <person id="p220" depart="2.20" departPos="random">
        <walk edges="A2A1 B2A2 C2B2 D2C2 E2D2 E3E2"/>
    </person>
    <person id="p221" depart="2.21" departPos="random">
        <walk edges="C0D0 D0E0 E0E1 E1E2 F2E2"/>
    </person>
    <person id="p222" depart="2.22" departPos="random">
        <walk edges="C1C0 C2C1 C3C2 C4C3 C5C4 B5C5"/>
    </person>
    <person id="p223" depart="2.23" departPos="random">
        <walk edges="D1D0 D1D2 D2D3 D3D4 D4D5 D5E5"/>
    </person>
    <person id="p224" depart="2.24" departPos="random">
        <walk edges="F4F3 F2F3 F1F2 F0F1 E0F0 D0E0"/>
    </person>
    <person id="p225" depart="2.25" departPos="random">
        <walk edges="B1B0 B1B2 C2B2 D2C2 E2D2 E3E2"/>
    </person>
    <person id="p226" depart="2.26" departPos="random">
        <walk edges="B0B1 C1B1 D1C1 E1D1 F1E1 F2F1"/>
    </person>
    <person id="p227" depart="2.27" departPos="random">
        <walk edges="E3D3 D3C3 C3B3 B3A3 A4A3"/>
    </person>
    <person id="p228" depart="2.28" departPos="random">
        <walk edges="A3A4 B3A3 C3B3 C2C3 C1C2 C0C1 D0C0"/>
    </person>
    <person id="p229" depart="2.29" departPos="random">
        <walk edges="B2A2 B3B2 C3B3 D3C3 E3D3 F3E3 F4F3"/>
    </person>
    <person id="p230" depart="2.30" departPos="random">
        <walk edges="F4F3 F3F2 E2F2 D2E2 C2D2 C2C1 C1B1"/>
    </person>
    <person id="p231" depart="2.31" departPos="random">
        <walk edges="C5B5 D5C5 E5D5 E4E5 E3E4 F3E3"/>
    </person>
    <person id="p232" depart="2.32" departPos="random">
        <walk edges="A3A2 A2A1 A1B1 B1C1 C1D1 D0D1"/>
    </person>
    <person id="p233" depart="2.33" departPos="random">
        <walk edges="E1F1 D1E1 C1D1 B1C1 A1B1 A1A0"/>
    </person>
    <person id="p234" depart="2.34" departPos="random">
        <walk edges="D4D5 D4D3 C3D3 B3C3 A3B3 A2A3"/>
    </person>
    <person id="p235" depart="2.35" departPos="random">
        <walk edges="A1A2 A2A3 A3A4 B4A4 C4B4 C4C5"/>
    </person>