<?xml version="1.0" encoding="UTF-8"?>
<!-- generated on 2020-03-03 12:25:52.230138 by $Id$
  options: -n net.net.xml -r ped.rou.xml <doubleminus>verbose <doubleminus>begin=0 <doubleminus>end=1 <doubleminus>period=0.004 <doubleminus>min-distance=500 <doubleminus>max-distance=750 <doubleminus>pedestrians <doubleminus>prefix p <doubleminus>trip-attributes departPos="random"
-->
<routes xmlns:xsi="http://www.w3.org/2001/XMLSchema-instance" xsi:noNamespaceSchemaLocation="http://sumo.dlr.de/xsd/routes_file.xsd">
    <person id="p0" depart="0.00" departPos="random">
        <walk from="F3F4" to="A3A4"/>
    </person>
    <person id="p1" depart="0.00" departPos="random">
        <walk from="F5E5" to="B0A0"/>
    </person>
    <person id="p2" depart="0.01" departPos="random">
        <walk from="E4D4" to="B0A0"/>
    </person>
    <person id="p3" depart="0.01" departPos="random">
        <walk from="F4E4" to="B0B1"/>
    </person>
    <person id="p4" depart="0.02" departPos="random">
        <walk from="C5C4" to="D0E0"/>
    </person>
    <person id="p5" depart="0.02" departPos="random">
        <walk from="B5C5" to="C0B0"/>
    </person>
    <person id="p6" depart="0.02" departPos="random">
        <walk from="F1F0" to="B5B4"/>
    </person>
    <person id="p7" depart="0.03" departPos="random">
        <walk from="A4B4" to="F2F1"/>
    </person>
    <person id="p8" depart="0.03" departPos="random">
        <walk from="B0B1" to="F5E5"/>
    </person>
    <person id="p9" depart="0.04" departPos="random">
        <walk from="A2A3" to="F4F3"/>
    </person>
    <person id="p10" depart="0.04" departPos="random">
        <walk from="F3F2" to="A1B1"/>
    </person>
    <person id="p11" depart="0.04" departPos="random">
        <walk from="B4A4" to="E0F0"/>
    </person>
    <person id="p12" depart="0.05" departPos="random">
        <walk from="E5D5" to="B1B0"/>
    </person>
    <person id="p13" depart="0.05" departPos="random">
        <walk from="E1D1" to="A5B5"/>
    </person>
    <person id="p14" depart="0.06" departPos="random">
        <walk from="E5F5" to="B1B0"/>
    </person>
    <person id="p15" depart="0.06" departPos="random">
        <walk from="C0B0" to="D5D4"/>
    </person>
    <person id="p16" depart="0.06" departPos="random">
        <walk from="D5E5" to="D0C0"/>
    </person>
    <person id="p17" depart="0.07" departPos="random">
        <walk from="F0E0" to="A5A4"/>
    </person>
    <person id="p18" depart="0.07" departPos="random">
        <walk from="B0A0" to="E4E5"/>
    </person>
    <person id="p19" depart="0.08" departPos="random">
        <walk from="F1E1" to="A4A5"/>
    </person>
    <person id="p20" depart="0.08" departPos="random">
        <walk from="A5B5" to="D1D2"/>
    </person>
    <person id="p21" depart="0.08" departPos="random">
        <walk from="A5A4" to="C0B0"/>
    </person>
    <person id="p22" depart="0.09" departPos="random">
        <walk from="E5E4" to="C0C1"/>
    </person>
    <person id="p23" depart="0.09" departPos="random">
        <walk from="F4F5" to="A4A5"/>
    </person>
    <person id="p24" depart="0.10" departPos="random">
        <walk from="C5C4" to="D0D1"/>
    </person>
    <person id="p25" depart="0.10" departPos="random">
        <walk from="A5B5" to="D0E0"/>
    </person>
    <person id="p26" depart="0.10" departPos="random">
        <walk from="F5F4" to="A0B0"/>
    </person>
    <person id="p27" depart="0.11" departPos="random">
        <walk from="A1B1" to="F4F5"/>
    </person>
    <person id="p28" depart="0.11" departPos="random">
        <walk from="F4F3" to="C0C1"/>
    </person>
    <person id="p29" depart="0.12" departPos="random">
        <walk from="F1F2" to="B4A4"/>
    </person>
    <person id="p30" depart="0.12" departPos="random">
        <walk from="F0E0" to="E5F5"/>
    </person>
    <person id="p31" depart="0.12" departPos="random">
        <walk from="F4E4" to="C0C1"/>
    </person>
    <person id="p32" depart="0.13" departPos="random">
        <walk from="C5D5" to="F0E0"/>
    </person>
    <person id="p33" depart="0.13" departPos="random">
        <walk from="E0E1" to="A3A4"/>
    </person>
    <person id="p34" depart="0.14" departPos="random">
        <walk from="E4E3" to="A1A2"/>
    </person>
    <person id="p35" depart="0.14" departPos="random">
        <walk from="A0B0" to="E3E4"/>
    </person>
    <person id="p36" depart="0.14" departPos="random">
        <walk from="F0E0" to="B3C3"/>
    </person>
    <person id="p37" depart="0.15" departPos="random">
        <walk from="B1B2" to="F4F3"/>
    </person>
    <person id="p38" depart="0.15" departPos="random">
        <walk from="E0E1" to="E5D5"/>
    </person>
    <person id="p39" depart="0.16" departPos="random">
        <walk from="B0B1" to="E4F4"/>
    </person>
    <person id="p40" depart="0.16" departPos="random">
        <walk from="F1E1" to="A5A4"/>
    </person>
    <person id="p41" depart="0.16" departPos="random">
        <walk from="B5C5" to="F2F1"/>
    </person>
    <person id="p42" depart="0.17" departPos="random">
        <walk from="D0C0" to="A4B4"/>
    </person>
    <person id="p43" depart="0.17" departPos="random">
        <walk from="B0A0" to="F3E3"/>
    </person>
    <person id="p44" depart="0.18" departPos="random">
        <walk from="E0F0" to="A3A4"/>
    </person>
    <person id="p45" depart="0.18" departPos="random">
        <walk from="F5E5" to="D0D1"/>
    </person>
    <person id="p46" depart="0.18" departPos="random">
        <walk from="A3A4" to="F3E3"/>
    </person>
    <person id="p47" depart="0.19" departPos="random">
        <walk from="F3E3" to="A1A2"/>
    </person>
    <person id="p48" depart="0.19" departPos="random">
        <walk from="D5C5" to="E0E1"/>
    </person>
    <person id="p49" depart="0.20" departPos="random">
        <walk from="F1F2" to="A1B1"/>
    </person>
    <person id="p50" depart="0.20" departPos="random">
        <walk from="A5A4" to="E0F0"/>
    </person>
    <person id="p51" depart="0.20" departPos="random">
        <walk from="B0C0" to="E4E5"/>
    </person>
    <person id="p52" depart="0.21" departPos="random">
        <walk from="E5D5" to="B1B2"/>
    </person>
    <person id="p53" depart="0.21" departPos="random">
        <walk from="B1C1" to="F4F5"/>
    </person>
    <person id="p54" depart="0.22" departPos="random">
        <walk from="F4F5" to="A2B2"/>
    </person>
    <person id="p55" depart="0.22" departPos="random">
        <walk from="D5E5" to="C0C1"/>
    </person>
    <person id="p56" depart="0.22" departPos="random">
        <walk from="F4E4" to="A5A4"/>
    </person>
    <person id="p57" depart="0.23" departPos="random">
        <walk from="F2F1" to="A4A3"/>
    </person>
    <person id="p58" depart="0.23" departPos="random">
        <walk from="D5E5" to="F0E0"/>
    </person>
    <person id="p59" depart="0.24" departPos="random">
        <walk from="A4A3" to="E1E2"/>
    </person>
    <person id="p60" depart="0.24" departPos="random">
        <walk from="F1F2" to="B4A4"/>
    </person>
    <person id="p61" depart="0.24" departPos="random">
        <walk from="B1A1" to="F5E5"/>
    </person>
    <person id="p62" depart="0.25" departPos="random">
        <walk from="A1A2" to="F5F4"/>
    </person>
    <person id="p63" depart="0.25" departPos="random">
        <walk from="C5C4" to="F1F2"/>
    </person>
    <person id="p64" depart="0.26" departPos="random">
        <walk from="E0F0" to="A4B4"/>
    </person>
    <person id="p65" depart="0.26" departPos="random">
        <walk from="A0A1" to="A5B5"/>
    </person>
    <person id="p66" depart="0.26" departPos="random">
        <walk from="F3F2" to="A0B0"/>
    </person>
    <person id="p67" depart="0.27" departPos="random">
        <walk from="F2E2" to="A0A1"/>
    </person>
    <person id="p68" depart="0.27" departPos="random">
        <walk from="E1D1" to="A4A3"/>
    </person>
    <person id="p69" depart="0.28" departPos="random">
        <walk from="E4E3" to="A0B0"/>
    </person>
    <person id="p70" depart="0.28" departPos="random">
        <walk from="F4F5" to="C0B0"/>
    </person>
    <person id="p71" depart="0.28" departPos="random">
        <walk from="D0D1" to="E5F5"/>
    </person>
    <person id="p72" depart="0.29" departPos="random">
        <walk from="B3B4" to="F0E0"/>
    </person>
    <person id="p73" depart="0.29" departPos="random">
        <walk from="F2E2" to="A5B5"/>
    </person>
    <person id="p74" depart="0.30" departPos="random">
        <walk from="F1F2" to="A4A5"/>
    </person>
    <person id="p75" depart="0.30" departPos="random">
        <walk from="A2B2" to="F1F0"/>
    </person>
    <person id="p76" depart="0.30" departPos="random">
        <walk from="E5D5" to="A0B0"/>
    </person>
    <person id="p77" depart="0.31" departPos="random">
        <walk from="A2A3" to="F0E0"/>
    </person>
    <person id="p78" depart="0.31" departPos="random">
        <walk from="A0B0" to="D5D4"/>
    </person>
    <person id="p79" depart="0.32" departPos="random">
        <walk from="E0F0" to="D5D4"/>
    </person>
    <person id="p80" depart="0.32" departPos="random">
        <walk from="B0C0" to="C5C4"/>
    </person>
    <person id="p81" depart="0.32" departPos="random">
        <walk from="E0F0" to="E5F5"/>
    </person>
    <person id="p82" depart="0.33" departPos="random">
        <walk from="F0E0" to="B3A3"/>
    </person>
    <person id="p83" depart="0.33" departPos="random">
        <walk from="F0F1" to="A1A0"/>
    </person>
    <person id="p84" depart="0.34" departPos="random">
        <walk from="E5D5" to="A0B0"/>
    </person>
    <person id="p85" depart="0.34" departPos="random">
        <walk from="F3F4" to="A5B5"/>
    </person>
    <person id="p86" depart="0.34" departPos="random">
        <walk from="B0A0" to="E5D5"/>
    </person>
    <person id="p87" depart="0.35" departPos="random">
        <walk from="F4E4" to="B0A0"/>
    </person>
    <person id="p88" depart="0.35" departPos="random">
        <walk from="F1E1" to="B5A5"/>
    </person>
    <person id="p89" depart="0.36" departPos="random">
        <walk from="B1B2" to="E5E4"/>
    </person>
    <person id="p90" depart="0.36" departPos="random">
        <walk from="B0C0" to="E4E5"/>
    </person>
    <person id="p91" depart="0.36" departPos="random">
        <walk from="A3A4" to="F2F1"/>
    </person>
    <person id="p92" depart="0.37" departPos="random">
        <walk from="C4C5" to="F0E0"/>
    </person>
    <person id="p93" depart="0.37" departPos="random">
        <walk from="A2A1" to="F3F4"/>
    </person>
    <person id="p94" depart="0.38" departPos="random">
        <walk from="F3F4" to="A2A1"/>
    </person>
    <person id="p95" depart="0.38" departPos="random">
        <walk from="A5A4" to="F4F3"/>
    </person>
    <person id="p96" depart="0.38" departPos="random">
        <walk from="A1A2" to="F3E3"/>
    </person>
    <person id="p97" depart="0.39" departPos="random">
        <walk from="A1A2" to="F4E4"/>
    </person>
    <person id="p98" depart="0.39" departPos="random">
        <walk from="A2B2" to="F5E5"/>
    </person>
    <person id="p99" depart="0.40" departPos="random">
        <walk from="C0D0" to="E5F5"/>
    </person>
    <person id="p100" depart="0.40" departPos="random">
        <walk from="B5B4" to="F0E0"/>
    </person>
    <person id="p101" depart="0.40" departPos="random">
        <walk from="F3F4" to="A3A4"/>
    </person>
    <person id="p102" depart="0.41" departPos="random">
        <walk from="D0D1" to="A4A3"/>
    </person>
    <person id="p103" depart="0.41" departPos="random">
        <walk from="F1F2" to="A5A4"/>
    </person>
    <person id="p104" depart="0.42" departPos="random">
        <walk from="F1F0" to="A3A4"/>
    </person>
    <person id="p105" depart="0.42" departPos="random">
        <walk from="A4A5" to="F1F0"/>
    </person>
    <person id="p106" depart="0.42" departPos="random">
        <walk from="E3D3" to="A0B0"/>
    </person>
    <person id="p107" depart="0.43" departPos="random">
        <walk from="E5E4" to="C0B0"/>
    </person>
    <person id="p108" depart="0.43" departPos="random">
        <walk from="A5A4" to="E1E2"/>
    </person>
    <person id="p109" depart="0.44" departPos="random">
        <walk from="F1F2" to="A5A4"/>
    </person>
    <person id="p110" depart="0.44" departPos="random">
        <walk from="B1B0" to="F4F5"/>
    </person>
    <person id="p111" depart="0.44" departPos="random">
        <walk from="A5B5" to="C0D0"/>
    </person>
    <person id="p112" depart="0.45" departPos="random">
        <walk from="E5F5" to="C0D0"/>
    </person>
    <person id="p113" depart="0.45" departPos="random">
        <walk from="B5B4" to="D0C0"/>
    </person>
    <person id="p114" depart="0.46" departPos="random">
        <walk from="A0B0" to="D4D3"/>
    </person>
    <person id="p115" depart="0.46" departPos="random">
        <walk from="E0E1" to="E5F5"/>
    </person>
    <person id="p116" depart="0.46" departPos="random">
        <walk from="F2F3" to="A3A4"/>
    </person>
    <person id="p117" depart="0.47" departPos="random">
        <walk from="F1E1" to="A5B5"/>
    </person>
    <person id="p118" depart="0.47" departPos="random">
        <walk from="F5E5" to="B1B0"/>
    </person>
    <person id="p119" depart="0.48" departPos="random">
        <walk from="C5B5" to="D0C0"/>
    </person>
    <person id="p120" depart="0.48" departPos="random">
        <walk from="F4E4" to="B1C1"/>
    </person>
    <person id="p121" depart="0.48" departPos="random">
        <walk from="C0C1" to="F4E4"/>
    </person>
    <person id="p122" depart="0.49" departPos="random">
        <walk from="F3F2" to="A4B4"/>
    </person>
    <person id="p123" depart="0.49" departPos="random">
        <walk from="D5D4" to="E0E1"/>
    </person>
    <person id="p124" depart="0.50" departPos="random">
        <walk from="F1E1" to="A3A4"/>
    </person>
    <person id="p125" depart="0.50" departPos="random">
        <walk from="F2F3" to="A3A2"/>
    </person>
    <person id="p126" depart="0.50" departPos="random">
        <walk from="A5B5" to="F4F3"/>
    </person>
    <person id="p127" depart="0.51" departPos="random">
        <walk from="B0B1" to="F3F4"/>
    </person>
    <person id="p128" depart="0.51" departPos="random">
        <walk from="A5A4" to="F0F1"/>
    </person>
    <person id="p129" depart="0.52" departPos="random">
        <walk from="E0D0" to="A3B3"/>
    </person>
    <person id="p130" depart="0.52" departPos="random">
        <walk from="A0A1" to="D4D5"/>
    </person>
    <person id="p131" depart="0.52" departPos="random">
        <walk from="F0F1" to="B4B5"/>
    </person>
    <person id="p132" depart="0.53" departPos="random">
        <walk from="F1F2" to="B5B4"/>
    </person>
    <person id="p133" depart="0.53" departPos="random">
        <walk from="B0C0" to="F4E4"/>
    </person>
    <person id="p134" depart="0.54" departPos="random">
        <walk from="A5B5" to="D1E1"/>
    </person>
    <person id="p135" depart="0.54" departPos="random">
        <walk from="A2B2" to="F0E0"/>
    </person>
    <person id="p136" depart="0.54" departPos="random">
        <walk from="F0E0" to="B3A3"/>
    </person>
    <person id="p137" depart="0.55" departPos="random">
        <walk from="C0D0" to="E5D5"/>
    </person>
    <person id="p138" depart="0.55" departPos="random">
        <walk from="D5C5" to="A1B1"/>
    </person>
    <person id="p139" depart="0.56" departPos="random">
        <walk from="E4E3" to="A1A0"/>
    </person>
    <person id="p140" depart="0.56" departPos="random">
        <walk from="F2F1" to="A2B2"/>
    </person>
    <person id="p141" depart="0.56" departPos="random">
        <walk from="D0C0" to="C5D5"/>
    </person>
    <person id="p142" depart="0.57" departPos="random">
        <walk from="C5D5" to="B0B1"/>
    </person>
    <person id="p143" depart="0.57" departPos="random">
        <walk from="A4B4" to="E0E1"/>
    </person>
    <person id="p144" depart="0.58" departPos="random">
        <walk from="C5B5" to="C0C1"/>
    </person>
    <person id="p145" depart="0.58" departPos="random">
        <walk from="A0A1" to="F5E5"/>
    </person>
    <person id="p146" depart="0.58" departPos="random">
        <walk from="A1A2" to="D5D4"/>
    </person>
    <person id="p147" depart="0.59" departPos="random">
        <walk from="A5B5" to="E1F1"/>
    </person>
    <person id="p148" depart="0.59" departPos="random">
        <walk from="F0E0" to="B4B3"/>
    </person>
    <person id="p149" depart="0.60" departPos="random">
        <walk from="F2F1" to="A5B5"/>
    </person>
    <person id="p150" depart="0.60" departPos="random">
        <walk from="B4C4" to="F1F0"/>
    </person>
    <person id="p151" depart="0.60" departPos="random">
        <walk from="A3A2" to="F3F2"/>
    </person>
    <person id="p152" depart="0.61" departPos="random">
        <walk from="A4A5" to="E0F0"/>
    </person>
    <person id="p153" depart="0.61" departPos="random">
        <walk from="F3F2" to="B0B1"/>
    </person>
    <person id="p154" depart="0.62" departPos="random">
        <walk from="D5D4" to="D0C0"/>
    </person>
    <person id="p155" depart="0.62" departPos="random">
        <walk from="F3F4" to="B0B1"/>
    </person>
    <person id="p156" depart="0.62" departPos="random">
        <walk from="B0C0" to="B5A5"/>
    </person>
    <person id="p157" depart="0.63" departPos="random">
        <walk from="C0C1" to="C5B5"/>
    </person>
    <person id="p158" depart="0.63" departPos="random">
        <walk from="A0A1" to="D4D5"/>
    </person>
    <person id="p159" depart="0.64" departPos="random">
        <walk from="B0C0" to="D5D4"/>
    </person>
    <person id="p160" depart="0.64" departPos="random">
        <walk from="A1A0" to="F1F0"/>
    </person>
    <person id="p161" depart="0.64" departPos="random">
        <walk from="E1E2" to="B5B4"/>
    </person>
    <person id="p162" depart="0.65" departPos="random">
        <walk from="E5F5" to="A0A1"/>
    </person>
    <person id="p163" depart="0.65" departPos="random">
        <walk from="B0C0" to="D5C5"/>
    </person>
    <person id="p164" depart="0.66" departPos="random">
        <walk from="E0D0" to="B4B3"/>
    </person>
    <person id="p165" depart="0.66" departPos="random">
        <walk from="D0C0" to="E5D5"/>
    </person>
    <person id="p166" depart="0.66" departPos="random">
        <walk from="A2A1" to="F2F1"/>
    </person>
    <person id="p167" depart="0.67" departPos="random">
        <walk from="F1F0" to="A1B1"/>
    </person>
    <person id="p168" depart="0.67" departPos="random">
        <walk from="C5B5" to="E0E1"/>
    </person>
    <person id="p169" depart="0.68" departPos="random">
        <walk from="F0F1" to="A4A3"/>
    </person>
    <person id="p170" depart="0.68" departPos="random">
        <walk from="E0D0" to="D5E5"/>
    </person>
    <person id="p171" depart="0.68" departPos="random">
        <walk from="F4F5" to="A2A1"/>
    </person>
    <person id="p172" depart="0.69" departPos="random">
        <walk from="F0E0" to="E5F5"/>
    </person>
    <person id="p173" depart="0.69" departPos="random">
        <walk from="C0B0" to="B5C5"/>
    </person>
    <person id="p174" depart="0.70" departPos="random">
        <walk from="F4F5" to="C0D0"/>
    </person>
    <person id="p175" depart="0.70" departPos="random">
        <walk from="B4C4" to="F1F0"/>
    </person>
    <person id="p176" depart="0.70" departPos="random">
        <walk from="B5B4" to="F1F0"/>
    </person>
    <person id="p177" depart="0.71" departPos="random">
        <walk from="C0D0" to="B5A5"/>
    </person>
    <person id="p178" depart="0.71" departPos="random">
        <walk from="F4E4" to="A1A2"/>
    </person>
    <person id="p179" depart="0.72" departPos="random">
        <walk from="F3F2" to="B0C0"/>
    </person>
    <person id="p180" depart="0.72" departPos="random">
        <walk from="F4F5" to="A2B2"/>
    </person>
    <person id="p181" depart="0.72" departPos="random">
        <walk from="A0A1" to="A5B5"/>
    </person>
    <person id="p182" depart="0.73" departPos="random">
        <walk from="B1B0" to="F4F5"/>
    </person>
    <person id="p183" depart="0.73" departPos="random">
        <walk from="A1A0" to="F0E0"/>
    </person>
    <person id="p184" depart="0.74" departPos="random">
        <walk from="B1A1" to="F4E4"/>
    </person>
    <person id="p185" depart="0.74" departPos="random">
        <walk from="E3D3" to="A0B0"/>
    </person>
    <person id="p186" depart="0.74" departPos="random">
        <walk from="A3B3" to="E0F0"/>
    </person>
    <person id="p187" depart="0.75" departPos="random">
        <walk from="A5B5" to="F3F2"/>
    </person>
    <person id="p188" depart="0.75" departPos="random">
        <walk from="A1B1" to="F3E3"/>
    </person>
    <person id="p189" depart="0.76" departPos="random">
        <walk from="B5A5" to="D0D1"/>
    </person>
    <person id="p190" depart="0.76" departPos="random">
        <walk from="D0E0" to="C5C4"/>
    </person>
    <person id="p191" depart="0.76" departPos="random">
        <walk from="F5F4" to="A1B1"/>
    </person>
    <person id="p192" depart="0.77" departPos="random">
        <walk from="D1C1" to="A5B5"/>
    </person>
    <person id="p193" depart="0.77" departPos="random">
        <walk from="A4A3" to="D0D1"/>
    </person>
    <person id="p194" depart="0.78" departPos="random">
        <walk from="F0E0" to="A5B5"/>
    </person>
    <person id="p195" depart="0.78" departPos="random">
        <walk from="A0A1" to="B5A5"/>
    </person>
    <person id="p196" depart="0.78" departPos="random">
        <walk from="C4B4" to="F0F1"/>
    </person>
    <person id="p197" depart="0.79" departPos="random">
        <walk from="E0D0" to="B5C5"/>
    </person>
    <person id="p198" depart="0.79" departPos="random">
        <walk from="F3F2" to="B0B1"/>
    </person>
    <person id="p199" depart="0.80" departPos="random">
        <walk from="E1D1" to="A4B4"/>
    </person>
    <person id="p200" depart="0.80" departPos="random">
        <walk from="F1F2" to="A0A1"/>
    </person>
    <person id="p201" depart="0.80" departPos="random">
        <walk from="C5D5" to="E0D0"/>
    </person>
    <person id="p202" depart="0.81" departPos="random">
        <walk from="A2B2" to="F2F1"/>
    </person>
    <person id="p203" depart="0.81" departPos="random">
        <walk from="E0F0" to="B4B3"/>
    </person>
    <person id="p204" depart="0.82" departPos="random">
        <walk from="A5B5" to="F3E3"/>
    </person>
    <person id="p205" depart="0.82" departPos="random">
        <walk from="B5A5" to="F2F1"/>
    </person>
    <person id="p206" depart="0.82" departPos="random">
        <walk from="B4A4" to="F1F2"/>
    </person>
    <person id="p207" depart="0.83" departPos="random">
        <walk from="B0C0" to="F4F5"/>
    </person>
    <person id="p208" depart="0.83" departPos="random">
        <walk from="E4D4" to="B0B1"/>
    </person>
    <person id="p209" depart="0.84" departPos="random">
        <walk from="A0A1" to="F5F4"/>
    </person>
    <person id="p210" depart="0.84" departPos="random">
        <walk from="A5A4" to="E2E3"/>
    </person>
    <person id="p211" depart="0.84" departPos="random">
        <walk from="F1F0" to="A4A5"/>
    </person>
    <person id="p212" depart="0.85" departPos="random">
        <walk from="D5C5" to="F0E0"/>
    </person>
    <person id="p213" depart="0.85" departPos="random">
        <walk from="B0B1" to="F3F2"/>
    </person>
    <person id="p214" depart="0.86" departPos="random">
        <walk from="B4B3" to="E0E1"/>
    </person>
    <person id="p215" depart="0.86" departPos="random">
        <walk from="F5F4" to="C0D0"/>
    </person>
    <person id="p216" depart="0.86" departPos="random">
        <walk from="E5E4" to="F0E0"/>
    </person>
    <person id="p217" depart="0.87" departPos="random">
        <walk from="C1D1" to="F5F4"/>
    </person>
    <person id="p218" depart="0.87" departPos="random">
        <walk from="C0D0" to="C5C4"/>
    </person>
    <person id="p219" depart="0.88" departPos="random">
        <walk from="F4E4" to="A5A4"/>
    </person>
    <person id="p220" depart="0.88" departPos="random">
        <walk from="E5F5" to="B1B2"/>
    </person>
    <person id="p221" depart="0.88" departPos="random">
        <walk from="B0A0" to="F5E5"/>
    </person>
    <person id="p222" depart="0.89" departPos="random">
        <walk from="A5A4" to="E1F1"/>
    </person>
    <person id="p223" depart="0.89" departPos="random">
        <walk from="A3A4" to="F4E4"/>
    </person>
    <person id="p224" depart="0.90" departPos="random">
        <walk from="A1A0" to="D5C5"/>
    </person>
    <person id="p225" depart="0.90" departPos="random">
        <walk from="A0A1" to="F3E3"/>
    </person>
    <person id="p226" depart="0.90" departPos="random">
        <walk from="A4A3" to="F4F3"/>
    </person>
    <person id="p227" depart="0.91" departPos="random">
        <walk from="E0F0" to="A3A2"/>
    </person>
    <person id="p228" depart="0.91" departPos="random">
        <walk from="A0B0" to="C5C4"/>
    </person>
    <person id="p229" depart="0.92" departPos="random">
        <walk from="C5D5" to="D0C0"/>
    </person>
    <person id="p230" depart="0.92" departPos="random">
        <walk from="D0D1" to="E5F5"/>
    </person>
    <person id="p231" depart="0.92" departPos="random">
        <walk from="F0F1" to="E5D5"/>
    </person>
    <person id="p232" depart="0.93" departPos="random">
        <walk from="D1E1" to="A5B5"/>
    </person>
    <person id="p233" depart="0.93" departPos="random">
        <walk from="E0D0" to="D5C5"/>
    </person>
    <person id="p234" depart="0.94" departPos="random">
        <walk from="F0F1" to="B3B4"/>
    </person>
    <person id="p235" depart="0.94" departPos="random">
        <walk from="B5A5" to="E0F0"/>
    </person>
    <person id="p236" depart="0.94" departPos="random">
        <walk from="D5D4" to="D0E0"/>
    </person>
    <person id="p237" depart="0.95" departPos="random">
        <walk from="F5E5" to="D0E0"/>
    </person>
    <person id="p238" depart="0.95" departPos="random">
        <walk from="A1A0" to="E4E5"/>
    </person>
    <person id="p239" depart="0.96" departPos="random">
        <walk from="B2C2" to="F5E5"/>
    </person>
    <person id="p240" depart="0.96" departPos="random">
        <walk from="E0D0" to="A4B4"/>
    </person>
    <person id="p241" depart="0.96" departPos="random">
        <walk from="B3C3" to="F0F1"/>
    </person>
    <person id="p242" depart="0.97" departPos="random">
        <walk from="A5A4" to="D1D2"/>
    </person>
    <person id="p243" depart="0.97" departPos="random">
        <walk from="A1A0" to="F3F2"/>
    </person>
    <person id="p244" depart="0.98" departPos="random">
        <walk from="B5A5" to="C0C1"/>
    </person>
    <person id="p245" depart="0.98" departPos="random">
        <walk from="F0F1" to="B5A5"/>
    </person>
    <person id="p246" depart="0.98" departPos="random">
        <walk from="E5E4" to="E0E1"/>
    </person>
    <person id="p247" depart="0.99" departPos="random">
        <walk from="B0A0" to="D5D4"/>
    </person>
    <person id="p248" depart="0.99" departPos="random">
        <walk from="A4A3" to="F0E0"/>
    </person>
    <person id="p249" depart="1.00" departPos="random">
        <walk from="B4C4" to="F1E1"/>
    </person>
</routes>
