<?xml version="1.0" encoding="UTF-8"?>

<!-- generated on Sun 20 Oct 2019 10:12:49 PM WEST by Eclipse SUMO netedit Version 1.2.0
<configuration xmlns:xsi="http://www.w3.org/2001/XMLSchema-instance" xsi:noNamespaceSchemaLocation="http://sumo.dlr.de/xsd/netconvertConfiguration.xsd">

    <input>
        <sumo-net-file value="/home/vad/artery/scenarios/vru_detection/sumo_vru/net.net.xml"/>
    </input>

    <output>
        <output-file value="/home/vad/artery/scenarios/vru_detection/sumo_vru/net.net.xml"/>
    </output>

    <processing>
        <geometry.max-grade.fix value="false"/>
        <offset.disable-normalization value="true"/>
        <lefthand value="false"/>
    </processing>

    <junctions>
        <no-internal-links value="false"/>
        <no-turnarounds value="true"/>
        <junctions.corner-detail value="5"/>
        <junctions.limit-turn-speed value="5.5"/>
        <rectangular-lane-cut value="false"/>
    </junctions>

    <pedestrian>
        <walkingareas value="false"/>
    </pedestrian>

    <netedit>
        <route-files value="/home/vad/artery/scenarios/vru_detection/sumo_vru/demand.rou"/>
    </netedit>
    
    
</configuration>
-->

<routes xmlns:xsi="http://www.w3.org/2001/XMLSchema-instance" xsi:noNamespaceSchemaLocation="http://sumo.dlr.de/xsd/routes_file.xsd">
     
    <routeDistribution id="routedist_1">
        <route id="route_0" edges="gneE25 gneE27" color="blue"/>
        <route id="route_1" edges="gneE25 gneE26" color="blue"/>
        <route id="route_10" edges="-gneE27 gneE28" color="blue"/>
        <route id="route_11" edges="-gneE27 -gneE25" color="blue"/>
        <route id="route_2" edges="gneE25 gneE28" color="blue"/>
        <route id="route_3" edges="-gneE28 gneE26" color="blue"/>
        <route id="route_4" edges="-gneE28 gneE27" color="blue"/>
        <route id="route_5" edges="-gneE28 -gneE25" color="blue"/>
        <route id="route_6" edges="-gneE26 gneE27" color="blue"/>
        <route id="route_7" edges="-gneE26 -gneE25" color="blue"/>
        <route id="route_8" edges="-gneE26 gneE28" color="blue"/>
        <route id="route_9" edges="-gneE27 gneE26" color="blue"/>
    </routeDistribution>    
   
   <routeDistribution id="routedist_p">
        <route id="route_p1" edges="gneE25 gneE28 -gneE28"/>
        <route id="route_p2" edges="gneE25 gneE26 -gneE26"/>
        <route id="route_p3" edges="-gneE25 -gneE27"/>
        <route id="route_p4" edges="-gneE25 -gneE27"/>        
   </routeDistribution>
   
   <vType id="vtype0" accel="2.6" decel="4.5" sigma="0.5" length="4.5" minGap="2.5" maxSpeed="14" color="1,1,0"/>
   
   <vType id="vtype1" vClass="passenger" color="1,0,1"/>
   <vType id="vtypep" vClass="pedestrian" color="0,255,255"/>
   
   <flow id="flow0" type="vtype1" route="routedist_1" begin="0" period="3" number="195"/>       
   <personFlow id="flow1_p" type="vtypep" route="routedist_1" begin="0" period="5" number="195"/> <!--     pedestrian -->
   
   <personFlow id="p" begin="0" end="10" period="2">
       <walk from="beg" to="end"/>
   </personFlow>
    
            
</routes>




