<?xml version="1.0" encoding="UTF-8"?>

<!-- generated on Чт 19 сен 2019 22:13:38 by Eclipse SUMO netedit Version 1.2.0
<configuration xmlns:xsi="http://www.w3.org/2001/XMLSchema-instance" xsi:noNamespaceSchemaLocation="http://sumo.dlr.de/xsd/netconvertConfiguration.xsd">

    <input>
        <sumo-net-file value="net.net.xml"/>
    </input>

    <output>
        <output-file value="net.net.xml"/>
    </output>

    <processing>
        <geometry.max-grade.fix value="false"/>
        <offset.disable-normalization value="true"/>
        <lefthand value="false"/>
    </processing>

    <junctions>
        <no-internal-links value="false"/>
        <no-turnarounds value="true"/>
        <junctions.corner-detail value="5"/>
        <junctions.limit-turn-speed value="5.5"/>
        <rectangular-lane-cut value="false"/>
    </junctions>

    <pedestrian>
        <walkingareas value="false"/>
    </pedestrian>

    <netedit>
        <route-files value="/home/vad/artery/scenarios/vru_detection/sumo_vru/net.rou.xml"/>
    </netedit>

</configuration>
-->

<net version="1.1" junctionCornerDetail="5" limitTurnSpeed="5.50" xmlns:xsi="http://www.w3.org/2001/XMLSchema-instance" xsi:noNamespaceSchemaLocation="http://sumo.dlr.de/xsd/net_file.xsd">

    <location netOffset="0.00,0.00" convBoundary="0.00,-100.00,200.00,100.00" origBoundary="-10000000000.000000,-10000000000.000000,10000000000.000000,10000000000.000000" projParameter="+proj=tmerc +ellps=WGS84 +datum=WGS84 +lat_0=49 +lon_0=11 +units=m +no_defs"/>

    <edge id=":gneJ55_w0" function="walkingarea">
        <lane id=":gneJ55_w0_0" index="0" allow="pedestrian" speed="1.00" length="14.80" width="2.00" shape="0.00,-6.40 0.00,-8.40 0.00,8.40 0.00,6.40"/>
    </edge>
    <edge id=":gneJ56_0" function="internal">
        <lane id=":gneJ56_0_0" index="0" disallow="pedestrian" speed="6.51" length="4.75" shape="95.20,10.40 94.85,7.95 93.80,6.20 93.60,6.08"/>
    </edge>
    <edge id=":gneJ56_1" function="internal">
        <lane id=":gneJ56_1_0" index="0" disallow="pedestrian" speed="8.00" length="10.13" shape="98.40,10.40 97.85,6.55 96.20,3.80 93.60,2.24"/>
    </edge>
    <edge id=":gneJ56_2" function="internal">
        <lane id=":gneJ56_2_0" index="0" disallow="pedestrian" speed="13.89" length="20.80" shape="98.40,10.40 98.40,-10.40"/>
    </edge>
    <edge id=":gneJ56_3" function="internal">
        <lane id=":gneJ56_3_0" index="0" disallow="pedestrian" speed="9.26" length="6.96" shape="98.40,10.40 99.15,5.15 100.00,3.73"/>
    </edge>
    <edge id=":gneJ56_16" function="internal">
        <lane id=":gneJ56_16_0" index="0" disallow="pedestrian" speed="6.51" length="4.28" shape="93.60,6.08 92.05,5.15 89.60,4.80"/>
    </edge>
    <edge id=":gneJ56_17" function="internal">
        <lane id=":gneJ56_17_0" index="0" disallow="pedestrian" speed="8.00" length="4.06" shape="93.60,2.24 93.45,2.15 89.60,1.60"/>
    </edge>
    <edge id=":gneJ56_18" function="internal">
        <lane id=":gneJ56_18_0" index="0" disallow="pedestrian" speed="9.26" length="12.40" shape="100.00,3.73 101.40,1.40 105.15,-0.85 110.40,-1.60"/>
    </edge>
    <edge id=":gneJ56_4" function="internal">
        <lane id=":gneJ56_4_0" index="0" disallow="pedestrian" speed="6.51" length="4.75" shape="110.40,4.80 107.95,5.15 106.20,6.20 106.08,6.40"/>
    </edge>
    <edge id=":gneJ56_5" function="internal">
        <lane id=":gneJ56_5_0" index="0" disallow="pedestrian" speed="7.33" length="7.08" shape="110.40,4.80 106.55,5.15 103.80,6.20 103.61,6.40"/>
    </edge>
    <edge id=":gneJ56_6" function="internal">
        <lane id=":gneJ56_6_0" index="0" disallow="pedestrian" speed="13.89" length="20.80" shape="110.40,1.60 89.60,1.60"/>
    </edge>
    <edge id=":gneJ56_7" function="internal">
        <lane id=":gneJ56_7_0" index="0" disallow="pedestrian" speed="9.26" length="6.96" shape="110.40,1.60 105.15,0.85 103.73,-0.00"/>
    </edge>
    <edge id=":gneJ56_19" function="internal">
        <lane id=":gneJ56_19_0" index="0" disallow="pedestrian" speed="6.51" length="4.28" shape="106.08,6.40 105.15,7.95 104.80,10.40"/>
    </edge>
    <edge id=":gneJ56_20" function="internal">
        <lane id=":gneJ56_20_0" index="0" disallow="pedestrian" speed="7.33" length="4.64" shape="103.61,6.40 102.15,7.95 101.60,10.40"/>
    </edge>
    <edge id=":gneJ56_21" function="internal">
        <lane id=":gneJ56_21_0" index="0" disallow="pedestrian" speed="9.26" length="12.40" shape="103.73,-0.00 101.40,-1.40 99.15,-5.15 98.40,-10.40"/>
    </edge>
    <edge id=":gneJ56_8" function="internal">
        <lane id=":gneJ56_8_0" index="0" disallow="pedestrian" speed="6.51" length="4.75" shape="104.80,-10.40 105.15,-7.95 106.20,-6.20 106.40,-6.08"/>
    </edge>
    <edge id=":gneJ56_9" function="internal">
        <lane id=":gneJ56_9_0" index="0" disallow="pedestrian" speed="8.00" length="10.13" shape="101.60,-10.40 102.15,-6.55 103.80,-3.80 106.40,-2.24"/>
    </edge>
    <edge id=":gneJ56_10" function="internal">
        <lane id=":gneJ56_10_0" index="0" disallow="pedestrian" speed="13.89" length="20.80" shape="101.60,-10.40 101.60,10.40"/>
    </edge>
    <edge id=":gneJ56_11" function="internal">
        <lane id=":gneJ56_11_0" index="0" disallow="pedestrian" speed="9.26" length="6.96" shape="101.60,-10.40 100.85,-5.15 100.00,-3.73"/>
    </edge>
    <edge id=":gneJ56_22" function="internal">
        <lane id=":gneJ56_22_0" index="0" disallow="pedestrian" speed="6.51" length="4.28" shape="106.40,-6.08 107.95,-5.15 110.40,-4.80"/>
    </edge>
    <edge id=":gneJ56_23" function="internal">
        <lane id=":gneJ56_23_0" index="0" disallow="pedestrian" speed="8.00" length="4.06" shape="106.40,-2.24 106.55,-2.15 110.40,-1.60"/>
    </edge>
    <edge id=":gneJ56_24" function="internal">
        <lane id=":gneJ56_24_0" index="0" disallow="pedestrian" speed="9.26" length="12.40" shape="100.00,-3.73 98.60,-1.40 94.85,0.85 89.60,1.60"/>
    </edge>
    <edge id=":gneJ56_12" function="internal">
        <lane id=":gneJ56_12_0" index="0" disallow="pedestrian" speed="6.51" length="4.75" shape="89.60,-4.80 92.05,-5.15 93.80,-6.20 93.92,-6.40"/>
    </edge>
    <edge id=":gneJ56_13" function="internal">
        <lane id=":gneJ56_13_0" index="0" disallow="pedestrian" speed="8.00" length="10.13" shape="89.60,-1.60 93.45,-2.15 96.20,-3.80 97.76,-6.40"/>
    </edge>
    <edge id=":gneJ56_14" function="internal">
        <lane id=":gneJ56_14_0" index="0" disallow="pedestrian" speed="13.89" length="20.80" shape="89.60,-1.60 110.40,-1.60"/>
    </edge>
    <edge id=":gneJ56_15" function="internal">
        <lane id=":gneJ56_15_0" index="0" disallow="pedestrian" speed="9.26" length="6.96" shape="89.60,-1.60 94.85,-0.85 96.27,0.00"/>
    </edge>
    <edge id=":gneJ56_25" function="internal">
        <lane id=":gneJ56_25_0" index="0" disallow="pedestrian" speed="6.51" length="4.28" shape="93.92,-6.40 94.85,-7.95 95.20,-10.40"/>
    </edge>
    <edge id=":gneJ56_26" function="internal">
        <lane id=":gneJ56_26_0" index="0" disallow="pedestrian" speed="8.00" length="4.06" shape="97.76,-6.40 97.85,-6.55 98.40,-10.40"/>
    </edge>
    <edge id=":gneJ56_27" function="internal">
        <lane id=":gneJ56_27_0" index="0" disallow="pedestrian" speed="9.26" length="12.40" shape="96.27,0.00 98.60,1.40 100.85,5.15 101.60,10.40"/>
    </edge>
    <edge id=":gneJ56_c0" function="crossing" crossingEdges="gneE27 -gneE27">
        <lane id=":gneJ56_c0_0" index="0" allow="pedestrian" speed="1.00" length="12.80" width="4.00" shape="106.40,8.40 93.60,8.40"/>
    </edge>
    <edge id=":gneJ56_c1" function="crossing" crossingEdges="gneE26 -gneE26">
        <lane id=":gneJ56_c1_0" index="0" allow="pedestrian" speed="1.00" length="12.80" width="4.00" shape="108.40,-6.40 108.40,6.40"/>
    </edge>
    <edge id=":gneJ56_c2" function="crossing" crossingEdges="gneE28 -gneE28">
        <lane id=":gneJ56_c2_0" index="0" allow="pedestrian" speed="1.00" length="12.80" width="4.00" shape="93.60,-8.40 106.40,-8.40"/>
    </edge>
    <edge id=":gneJ56_c3" function="crossing" crossingEdges="-gneE25 gneE25">
        <lane id=":gneJ56_c3_0" index="0" allow="pedestrian" speed="1.00" length="12.80" width="4.00" shape="91.60,6.40 91.60,-6.40"/>
    </edge>
    <edge id=":gneJ56_w0" function="walkingarea">
        <lane id=":gneJ56_w0_0" index="0" allow="pedestrian" speed="1.00" length="3.30" width="4.00" shape="89.60,6.40 89.60,8.40 91.60,10.40 93.60,10.40 93.49,9.18 93.16,8.18 92.60,7.40 91.82,6.84 90.82,6.51"/>
    </edge>
    <edge id=":gneJ56_w1" function="walkingarea">
        <lane id=":gneJ56_w1_0" index="0" allow="pedestrian" speed="1.00" length="3.30" width="4.00" shape="106.40,10.40 108.40,10.40 110.40,8.40 110.40,6.40 109.18,6.51 108.18,6.84 107.40,7.40 106.84,8.18 106.51,9.18"/>
    </edge>
    <edge id=":gneJ56_w2" function="walkingarea">
        <lane id=":gneJ56_w2_0" index="0" allow="pedestrian" speed="1.00" length="3.30" width="4.00" shape="110.40,-6.40 110.40,-8.40 108.40,-10.40 106.40,-10.40 106.51,-9.18 106.84,-8.18 107.40,-7.40 108.18,-6.84 109.18,-6.51"/>
    </edge>
    <edge id=":gneJ56_w3" function="walkingarea">
        <lane id=":gneJ56_w3_0" index="0" allow="pedestrian" speed="1.00" length="3.30" width="4.00" shape="93.60,-10.40 91.60,-10.40 89.60,-8.40 89.60,-6.40 90.82,-6.51 91.82,-6.84 92.60,-7.40 93.16,-8.18 93.49,-9.18"/>
    </edge>
    <edge id=":gneJ57_w0" function="walkingarea">
        <lane id=":gneJ57_w0_0" index="0" allow="pedestrian" speed="1.00" length="14.80" width="2.00" shape="200.00,6.40 200.00,8.40 200.00,-8.40 200.00,-6.40"/>
    </edge>
    <edge id=":gneJ58_w0" function="walkingarea">
        <lane id=":gneJ58_w0_0" index="0" allow="pedestrian" speed="1.00" length="14.80" width="2.00" shape="93.60,100.00 91.60,100.00 108.40,100.00 106.40,100.00"/>
    </edge>
    <edge id=":gneJ59_w0" function="walkingarea">
        <lane id=":gneJ59_w0_0" index="0" allow="pedestrian" speed="1.00" length="14.80" width="2.00" shape="106.40,-100.00 108.40,-100.00 91.60,-100.00 93.60,-100.00"/>
    </edge>

    <edge id="-gneE25" from="gneJ56" to="gneJ55" priority="-1">
        <lane id="-gneE25_0" index="0" allow="pedestrian" speed="13.89" length="89.60" width="2.00" shape="89.60,7.40 0.00,7.40"/>
        <lane id="-gneE25_1" index="1" disallow="pedestrian" speed="13.89" length="89.60" shape="89.60,4.80 0.00,4.80"/>
        <lane id="-gneE25_2" index="2" disallow="pedestrian" speed="13.89" length="89.60" shape="89.60,1.60 0.00,1.60"/>
    </edge>
    <edge id="-gneE26" from="gneJ57" to="gneJ56" priority="-1">
        <lane id="-gneE26_0" index="0" allow="pedestrian" speed="13.89" length="89.60" width="2.00" shape="200.00,7.40 110.40,7.40"/>
        <lane id="-gneE26_1" index="1" disallow="pedestrian" speed="13.89" length="89.60" shape="200.00,4.80 110.40,4.80"/>
        <lane id="-gneE26_2" index="2" disallow="pedestrian" speed="13.89" length="89.60" shape="200.00,1.60 110.40,1.60"/>
    </edge>
    <edge id="-gneE27" from="gneJ58" to="gneJ56" priority="-1">
        <lane id="-gneE27_0" index="0" allow="pedestrian" speed="13.89" length="89.60" width="2.00" shape="92.60,100.00 92.60,10.40"/>
        <lane id="-gneE27_1" index="1" disallow="pedestrian" speed="13.89" length="89.60" shape="95.20,100.00 95.20,10.40"/>
        <lane id="-gneE27_2" index="2" disallow="pedestrian" speed="13.89" length="89.60" shape="98.40,100.00 98.40,10.40"/>
    </edge>
    <edge id="-gneE28" from="gneJ59" to="gneJ56" priority="-1">
        <lane id="-gneE28_0" index="0" allow="pedestrian" speed="13.89" length="89.60" width="2.00" shape="107.40,-100.00 107.40,-10.40"/>
        <lane id="-gneE28_1" index="1" disallow="pedestrian" speed="13.89" length="89.60" shape="104.80,-100.00 104.80,-10.40"/>
        <lane id="-gneE28_2" index="2" disallow="pedestrian" speed="13.89" length="89.60" shape="101.60,-100.00 101.60,-10.40"/>
    </edge>
    <edge id="gneE25" from="gneJ55" to="gneJ56" priority="-1">
        <lane id="gneE25_0" index="0" allow="pedestrian" speed="13.89" length="89.60" width="2.00" shape="0.00,-7.40 89.60,-7.40"/>
        <lane id="gneE25_1" index="1" disallow="pedestrian" speed="13.89" length="89.60" shape="0.00,-4.80 89.60,-4.80"/>
        <lane id="gneE25_2" index="2" disallow="pedestrian" speed="13.89" length="89.60" shape="0.00,-1.60 89.60,-1.60"/>
    </edge>
    <edge id="gneE26" from="gneJ56" to="gneJ57" priority="-1">
        <lane id="gneE26_0" index="0" allow="pedestrian" speed="13.89" length="89.60" width="2.00" shape="110.40,-7.40 200.00,-7.40"/>
        <lane id="gneE26_1" index="1" disallow="pedestrian" speed="13.89" length="89.60" shape="110.40,-4.80 200.00,-4.80"/>
        <lane id="gneE26_2" index="2" disallow="pedestrian" speed="13.89" length="89.60" shape="110.40,-1.60 200.00,-1.60"/>
    </edge>
    <edge id="gneE27" from="gneJ56" to="gneJ58" priority="-1">
        <lane id="gneE27_0" index="0" allow="pedestrian" speed="13.89" length="89.60" width="2.00" shape="107.40,10.40 107.40,100.00"/>
        <lane id="gneE27_1" index="1" disallow="pedestrian" speed="13.89" length="89.60" shape="104.80,10.40 104.80,100.00"/>
        <lane id="gneE27_2" index="2" disallow="pedestrian" speed="13.89" length="89.60" shape="101.60,10.40 101.60,100.00"/>
    </edge>
    <edge id="gneE28" from="gneJ56" to="gneJ59" priority="-1">
        <lane id="gneE28_0" index="0" allow="pedestrian" speed="13.89" length="89.60" width="2.00" shape="92.60,-10.40 92.60,-100.00"/>
        <lane id="gneE28_1" index="1" disallow="pedestrian" speed="13.89" length="89.60" shape="95.20,-10.40 95.20,-100.00"/>
        <lane id="gneE28_2" index="2" disallow="pedestrian" speed="13.89" length="89.60" shape="98.40,-10.40 98.40,-100.00"/>
    </edge>

    <tlLogic id="gneJ56" type="static" programID="1" offset="0">
        <phase duration="37" state="ggGgrrrrggGgrrrrrGrG"/>
        <phase duration="5"  state="ggGgrrrrggGgrrrrrrrr"/>
        <phase duration="3"  state="yyyyrrrryyyyrrrrrrrr"/>
        <phase duration="37" state="rrrrggGgrrrrggGgGrGr"/>
        <phase duration="5"  state="rrrrggGgrrrrggGgrrrr"/>
        <phase duration="3"  state="rrrryyyyrrrryyyyrrrr"/>
    </tlLogic>
    <tlLogic id="gneJ56" type="static" programID="2" offset="0">
        <phase duration="37" state="ggGgrrrrggGgrrrrrGrG"/>
        <phase duration="5"  state="ggGgrrrrggGgrrrrrrrr"/>
        <phase duration="3"  state="yyyyrrrryyyyrrrrrrrr"/>
        <phase duration="37" state="rrrrggGgrrrrggGgGrGr"/>
        <phase duration="5"  state="rrrrggGgrrrrggGgrrrr"/>
        <phase duration="3"  state="rrrryyyyrrrryyyyrrrr"/>
    </tlLogic>

    <junction id="gneJ55" type="dead_end" x="0.00" y="0.00" incLanes="-gneE25_0 -gneE25_1 -gneE25_2" intLanes="" shape="0.00,0.00 0.00,8.40 0.00,0.00"/>
    <junction id="gneJ56" type="traffic_light" x="100.00" y="0.00" incLanes="-gneE27_0 -gneE27_1 -gneE27_2 -gneE26_0 -gneE26_1 -gneE26_2 -gneE28_0 -gneE28_1 -gneE28_2 gneE25_0 gneE25_1 gneE25_2 :gneJ56_w1_0 :gneJ56_w2_0 :gneJ56_w3_0 :gneJ56_w0_0" intLanes=":gneJ56_16_0 :gneJ56_17_0 :gneJ56_2_0 :gneJ56_18_0 :gneJ56_19_0 :gneJ56_20_0 :gneJ56_6_0 :gneJ56_21_0 :gneJ56_22_0 :gneJ56_23_0 :gneJ56_10_0 :gneJ56_24_0 :gneJ56_25_0 :gneJ56_26_0 :gneJ56_14_0 :gneJ56_27_0 :gneJ56_c0_0 :gneJ56_c1_0 :gneJ56_c2_0 :gneJ56_c3_0" shape="91.60,10.40 108.40,10.40 108.62,9.29 108.90,8.90 109.29,8.62 109.79,8.46 110.40,8.40 110.40,-8.40 109.29,-8.62 108.90,-8.90 108.62,-9.29 108.46,-9.79 108.40,-10.40 91.60,-10.40 91.38,-9.29 91.10,-8.90 90.71,-8.62 90.21,-8.46 89.60,-8.40 89.60,8.40 90.71,8.62 91.10,8.90 91.38,9.29 91.54,9.79">
        <request index="0"  response="10000000000000000000" foes="10010000100001000000" cont="1"/>
        <request index="1"  response="10000000000000000000" foes="10010000100001000000" cont="1"/>
        <request index="2"  response="00001011000010000000" foes="01011111100011000000" cont="0"/>
        <request index="3"  response="00101000011110000000" foes="00111100011111000000" cont="1"/>
        <request index="4"  response="00010000010000000000" foes="00111000010000000000" cont="1"/>
        <request index="5"  response="00010000010000000000" foes="00111000010000000000" cont="1"/>
        <request index="6"  response="00000000110000001111" foes="10101000110000001111" cont="0"/>
        <request index="7"  response="01000111110000001100" foes="01100111110000001100" cont="1"/>
        <request index="8"  response="00100000000000000000" foes="01100100000000001000" cont="1"/>
        <request index="9"  response="00100000000000000000" foes="01100100000000001000" cont="1"/>
        <request index="10" response="00001000000010110000" foes="01011100000011111000" cont="0"/>
        <request index="11" response="10001000000010000111" foes="11001100000011000111" cont="1"/>
        <request index="12" response="01000000000000000100" foes="11000000000010000100" cont="1"/>
        <request index="13" response="01000000000000000100" foes="11000000000010000100" cont="1"/>
        <request index="14" response="00000000111100001100" foes="10100000111110001100" cont="0"/>
        <request index="15" response="00010000110001111100" foes="10010000110001111100" cont="1"/>
        <request index="16" response="00000000010000001111" foes="00001000010000111111" cont="0"/>
        <request index="17" response="00000100000011110000" foes="00000100001111111000" cont="0"/>
        <request index="18" response="00000000111100000100" foes="00000011111110000100" cont="0"/>
        <request index="19" response="00001111000001000000" foes="00001111100001000011" cont="0"/>
    </junction>
    <junction id="gneJ57" type="dead_end" x="200.00" y="0.00" incLanes="gneE26_0 gneE26_1 gneE26_2" intLanes="" shape="200.00,0.00 200.00,-8.40 200.00,0.00"/>
    <junction id="gneJ58" type="dead_end" x="100.00" y="100.00" incLanes="gneE27_0 gneE27_1 gneE27_2" intLanes="" shape="100.00,100.00 108.40,100.00 100.00,100.00"/>
    <junction id="gneJ59" type="dead_end" x="100.00" y="-100.00" incLanes="gneE28_0 gneE28_1 gneE28_2" intLanes="" shape="100.00,-100.00 91.60,-100.00 100.00,-100.00"/>

    <junction id=":gneJ56_16_0" type="internal" x="93.60" y="6.08" incLanes=":gneJ56_0_0" intLanes=":gneJ56_6_0 :gneJ56_11_0 :gneJ56_c0_0 :gneJ56_c3_0"/>
    <junction id=":gneJ56_17_0" type="internal" x="93.60" y="2.24" incLanes=":gneJ56_1_0" intLanes=":gneJ56_6_0 :gneJ56_11_0 :gneJ56_c0_0 :gneJ56_c3_0"/>
    <junction id=":gneJ56_18_0" type="internal" x="100.00" y="3.73" incLanes=":gneJ56_3_0 -gneE28_1 -gneE28_2" intLanes=":gneJ56_6_0 :gneJ56_7_0 :gneJ56_8_0 :gneJ56_9_0 :gneJ56_10_0 :gneJ56_14_0 :gneJ56_15_0 :gneJ56_c0_0 :gneJ56_c1_0"/>
    <junction id=":gneJ56_19_0" type="internal" x="106.08" y="6.40" incLanes=":gneJ56_4_0" intLanes=":gneJ56_10_0 :gneJ56_15_0 :gneJ56_c0_0 :gneJ56_c1_0"/>
    <junction id=":gneJ56_20_0" type="internal" x="103.61" y="6.40" incLanes=":gneJ56_5_0" intLanes=":gneJ56_10_0 :gneJ56_15_0 :gneJ56_c0_0 :gneJ56_c1_0"/>
    <junction id=":gneJ56_21_0" type="internal" x="103.73" y="-0.00" incLanes=":gneJ56_7_0 gneE25_1 gneE25_2" intLanes=":gneJ56_2_0 :gneJ56_3_0 :gneJ56_10_0 :gneJ56_11_0 :gneJ56_12_0 :gneJ56_13_0 :gneJ56_14_0 :gneJ56_c1_0 :gneJ56_c2_0"/>
    <junction id=":gneJ56_22_0" type="internal" x="106.40" y="-6.08" incLanes=":gneJ56_8_0" intLanes=":gneJ56_3_0 :gneJ56_14_0 :gneJ56_c1_0 :gneJ56_c2_0"/>
    <junction id=":gneJ56_23_0" type="internal" x="106.40" y="-2.24" incLanes=":gneJ56_9_0" intLanes=":gneJ56_3_0 :gneJ56_14_0 :gneJ56_c1_0 :gneJ56_c2_0"/>
    <junction id=":gneJ56_24_0" type="internal" x="100.00" y="-3.73" incLanes=":gneJ56_11_0 -gneE27_1 -gneE27_2" intLanes=":gneJ56_0_0 :gneJ56_1_0 :gneJ56_2_0 :gneJ56_6_0 :gneJ56_7_0 :gneJ56_14_0 :gneJ56_15_0 :gneJ56_c2_0 :gneJ56_c3_0"/>
    <junction id=":gneJ56_25_0" type="internal" x="93.92" y="-6.40" incLanes=":gneJ56_12_0" intLanes=":gneJ56_2_0 :gneJ56_7_0 :gneJ56_c2_0 :gneJ56_c3_0"/>
    <junction id=":gneJ56_26_0" type="internal" x="97.76" y="-6.40" incLanes=":gneJ56_13_0" intLanes=":gneJ56_2_0 :gneJ56_7_0 :gneJ56_c2_0 :gneJ56_c3_0"/>
    <junction id=":gneJ56_27_0" type="internal" x="96.27" y="0.00" incLanes=":gneJ56_15_0 -gneE26_1 -gneE26_2" intLanes=":gneJ56_2_0 :gneJ56_3_0 :gneJ56_4_0 :gneJ56_5_0 :gneJ56_6_0 :gneJ56_10_0 :gneJ56_11_0 :gneJ56_c0_0 :gneJ56_c3_0"/>

    <connection from="-gneE26" to="gneE27" fromLane="1" toLane="1" via=":gneJ56_4_0" tl="gneJ56" linkIndex="4" dir="r" state="o"/>
    <connection from="-gneE26" to="gneE27" fromLane="1" toLane="2" via=":gneJ56_5_0" tl="gneJ56" linkIndex="5" dir="r" state="o"/>
    <connection from="-gneE26" to="-gneE25" fromLane="2" toLane="2" via=":gneJ56_6_0" tl="gneJ56" linkIndex="6" dir="s" state="o"/>
    <connection from="-gneE26" to="gneE28" fromLane="2" toLane="2" via=":gneJ56_7_0" tl="gneJ56" linkIndex="7" dir="l" state="o"/>
    <connection from="-gneE27" to="-gneE25" fromLane="1" toLane="1" via=":gneJ56_0_0" tl="gneJ56" linkIndex="0" dir="r" state="o"/>
    <connection from="-gneE27" to="-gneE25" fromLane="2" toLane="2" via=":gneJ56_1_0" tl="gneJ56" linkIndex="1" dir="r" state="o"/>
    <connection from="-gneE27" to="gneE28" fromLane="2" toLane="2" via=":gneJ56_2_0" tl="gneJ56" linkIndex="2" dir="s" state="O"/>
    <connection from="-gneE27" to="gneE26" fromLane="2" toLane="2" via=":gneJ56_3_0" tl="gneJ56" linkIndex="3" dir="l" state="o"/>
    <connection from="-gneE28" to="gneE26" fromLane="1" toLane="1" via=":gneJ56_8_0" tl="gneJ56" linkIndex="8" dir="r" state="o"/>
    <connection from="-gneE28" to="gneE26" fromLane="2" toLane="2" via=":gneJ56_9_0" tl="gneJ56" linkIndex="9" dir="r" state="o"/>
    <connection from="-gneE28" to="gneE27" fromLane="2" toLane="2" via=":gneJ56_10_0" tl="gneJ56" linkIndex="10" dir="s" state="O"/>
    <connection from="-gneE28" to="-gneE25" fromLane="2" toLane="2" via=":gneJ56_11_0" tl="gneJ56" linkIndex="11" dir="l" state="o"/>
    <connection from="gneE25" to="gneE28" fromLane="1" toLane="1" via=":gneJ56_12_0" tl="gneJ56" linkIndex="12" dir="r" state="o"/>
    <connection from="gneE25" to="gneE28" fromLane="2" toLane="2" via=":gneJ56_13_0" tl="gneJ56" linkIndex="13" dir="r" state="o"/>
    <connection from="gneE25" to="gneE26" fromLane="2" toLane="2" via=":gneJ56_14_0" tl="gneJ56" linkIndex="14" dir="s" state="o"/>
    <connection from="gneE25" to="gneE27" fromLane="2" toLane="2" via=":gneJ56_15_0" tl="gneJ56" linkIndex="15" dir="l" state="o"/>

    <connection from=":gneJ56_0" to="-gneE25" fromLane="0" toLane="1" via=":gneJ56_16_0" dir="r" state="m"/>
    <connection from=":gneJ56_16" to="-gneE25" fromLane="0" toLane="1" dir="r" state="M"/>
    <connection from=":gneJ56_1" to="-gneE25" fromLane="0" toLane="2" via=":gneJ56_17_0" dir="r" state="m"/>
    <connection from=":gneJ56_17" to="-gneE25" fromLane="0" toLane="2" dir="r" state="M"/>
    <connection from=":gneJ56_2" to="gneE28" fromLane="0" toLane="2" dir="s" state="M"/>
    <connection from=":gneJ56_3" to="gneE26" fromLane="0" toLane="2" via=":gneJ56_18_0" dir="l" state="m"/>
    <connection from=":gneJ56_18" to="gneE26" fromLane="0" toLane="2" dir="l" state="M"/>
    <connection from=":gneJ56_4" to="gneE27" fromLane="0" toLane="1" via=":gneJ56_19_0" dir="r" state="m"/>
    <connection from=":gneJ56_19" to="gneE27" fromLane="0" toLane="1" dir="r" state="M"/>
    <connection from=":gneJ56_5" to="gneE27" fromLane="0" toLane="2" via=":gneJ56_20_0" dir="r" state="m"/>
    <connection from=":gneJ56_20" to="gneE27" fromLane="0" toLane="2" dir="r" state="M"/>
    <connection from=":gneJ56_6" to="-gneE25" fromLane="0" toLane="2" dir="s" state="M"/>
    <connection from=":gneJ56_7" to="gneE28" fromLane="0" toLane="2" via=":gneJ56_21_0" dir="l" state="m"/>
    <connection from=":gneJ56_21" to="gneE28" fromLane="0" toLane="2" dir="l" state="M"/>
    <connection from=":gneJ56_8" to="gneE26" fromLane="0" toLane="1" via=":gneJ56_22_0" dir="r" state="m"/>
    <connection from=":gneJ56_22" to="gneE26" fromLane="0" toLane="1" dir="r" state="M"/>
    <connection from=":gneJ56_9" to="gneE26" fromLane="0" toLane="2" via=":gneJ56_23_0" dir="r" state="m"/>
    <connection from=":gneJ56_23" to="gneE26" fromLane="0" toLane="2" dir="r" state="M"/>
    <connection from=":gneJ56_10" to="gneE27" fromLane="0" toLane="2" dir="s" state="M"/>
    <connection from=":gneJ56_11" to="-gneE25" fromLane="0" toLane="2" via=":gneJ56_24_0" dir="l" state="m"/>
    <connection from=":gneJ56_24" to="-gneE25" fromLane="0" toLane="2" dir="l" state="M"/>
    <connection from=":gneJ56_12" to="gneE28" fromLane="0" toLane="1" via=":gneJ56_25_0" dir="r" state="m"/>
    <connection from=":gneJ56_25" to="gneE28" fromLane="0" toLane="1" dir="r" state="M"/>
    <connection from=":gneJ56_13" to="gneE28" fromLane="0" toLane="2" via=":gneJ56_26_0" dir="r" state="m"/>
    <connection from=":gneJ56_26" to="gneE28" fromLane="0" toLane="2" dir="r" state="M"/>
    <connection from=":gneJ56_14" to="gneE26" fromLane="0" toLane="2" dir="s" state="M"/>
    <connection from=":gneJ56_15" to="gneE27" fromLane="0" toLane="2" via=":gneJ56_27_0" dir="l" state="m"/>
    <connection from=":gneJ56_27" to="gneE27" fromLane="0" toLane="2" dir="l" state="M"/>

    <connection from=":gneJ55_w0" to="gneE25" fromLane="0" toLane="0" dir="s" state="M"/>
    <connection from="-gneE25" to=":gneJ55_w0" fromLane="0" toLane="0" dir="s" state="M"/>
    <connection from=":gneJ56_c0" to=":gneJ56_w0" fromLane="0" toLane="0" dir="s" state="M"/>
    <connection from=":gneJ56_c1" to=":gneJ56_w1" fromLane="0" toLane="0" dir="s" state="M"/>
    <connection from=":gneJ56_c2" to=":gneJ56_w2" fromLane="0" toLane="0" dir="s" state="M"/>
    <connection from=":gneJ56_c3" to=":gneJ56_w3" fromLane="0" toLane="0" dir="s" state="M"/>
    <connection from=":gneJ56_w0" to=":gneJ56_c3" fromLane="0" toLane="0" tl="gneJ56" linkIndex="19" dir="s" state="m"/>
    <connection from=":gneJ56_w0" to="-gneE25" fromLane="0" toLane="0" dir="s" state="M"/>
    <connection from="-gneE27" to=":gneJ56_w0" fromLane="0" toLane="0" dir="s" state="M"/>
    <connection from=":gneJ56_w1" to=":gneJ56_c0" fromLane="0" toLane="0" tl="gneJ56" linkIndex="16" dir="s" state="m"/>
    <connection from=":gneJ56_w1" to="gneE27" fromLane="0" toLane="0" dir="s" state="M"/>
    <connection from="-gneE26" to=":gneJ56_w1" fromLane="0" toLane="0" dir="s" state="M"/>
    <connection from=":gneJ56_w2" to=":gneJ56_c1" fromLane="0" toLane="0" tl="gneJ56" linkIndex="17" dir="s" state="m"/>
    <connection from=":gneJ56_w2" to="gneE26" fromLane="0" toLane="0" dir="s" state="M"/>
    <connection from="-gneE28" to=":gneJ56_w2" fromLane="0" toLane="0" dir="s" state="M"/>
    <connection from=":gneJ56_w3" to=":gneJ56_c2" fromLane="0" toLane="0" tl="gneJ56" linkIndex="18" dir="s" state="m"/>
    <connection from=":gneJ56_w3" to="gneE28" fromLane="0" toLane="0" dir="s" state="M"/>
    <connection from="gneE25" to=":gneJ56_w3" fromLane="0" toLane="0" dir="s" state="M"/>
    <connection from=":gneJ57_w0" to="-gneE26" fromLane="0" toLane="0" dir="s" state="M"/>
    <connection from="gneE26" to=":gneJ57_w0" fromLane="0" toLane="0" dir="s" state="M"/>
    <connection from=":gneJ58_w0" to="-gneE27" fromLane="0" toLane="0" dir="s" state="M"/>
    <connection from="gneE27" to=":gneJ58_w0" fromLane="0" toLane="0" dir="s" state="M"/>
    <connection from=":gneJ59_w0" to="-gneE28" fromLane="0" toLane="0" dir="s" state="M"/>
    <connection from="gneE28" to=":gneJ59_w0" fromLane="0" toLane="0" dir="s" state="M"/>
</net>
