<?xml version="1.0" encoding="UTF-8"?>

<!-- generated on Wed Dec 11 08:21:05 2019 by Eclipse SUMO duarouter Version 1.2.0
<configuration xmlns:xsi="http://www.w3.org/2001/XMLSchema-instance" xsi:noNamespaceSchemaLocation="http://sumo.dlr.de/xsd/duarouterConfiguration.xsd">

    <input>
        <net-file value="net.net.xml"/>
        <route-files value="trips.trips.xml"/>
    </input>

    <output>
        <output-file value="ped.rou.xml"/>
        <alternatives-output value="ped.rou.alt.xml"/>
    </output>

    <time>
        <begin value="0.0"/>
        <end value="1.0"/>
    </time>

    <report>
        <no-warnings value="true"/>
        <ignore-errors value="true"/>
        <no-step-log value="true"/>
    </report>

</configuration>
-->

<routes xmlns:xsi="http://www.w3.org/2001/XMLSchema-instance" xsi:noNamespaceSchemaLocation="http://sumo.dlr.de/xsd/routes_file.xsd">
    <person id="p0" depart="0.00">
        <walk edges="gneE27 -gneE25 gneE25"/>
    </person>
    <person id="p1" depart="0.01">
        <walk edges="-gneE26 gneE26 -gneE28"/>
    </person>
    <person id="p2" depart="0.02">
        <walk edges="gneE25 -gneE25 -gneE27"/>
    </person>
    <person id="p3" depart="0.03">
        <walk edges="-gneE25 -gneE27"/>
    </person>
    <person id="p4" depart="0.04">
        <walk edges="gneE25 gneE28"/>
    </person>
    <person id="p5" depart="0.05">
        <walk edges="gneE26 -gneE26"/>
    </person>
    <person id="p6" depart="0.06">
        <walk edges="-gneE28 gneE27"/>
    </person>
    <person id="p7" depart="0.07">
        <walk edges="-gneE28 gneE28 -gneE25"/>
    </person>
    <person id="p8" depart="0.08">
        <walk edges="-gneE27 gneE28"/>
    </person>
    <person id="p9" depart="0.09">
        <walk edges="-gneE25 -gneE27"/>
    </person>
    <person id="p10" depart="0.10">
        <walk edges="gneE25 -gneE25 -gneE27"/>
    </person>
</routes>
