<?xml version="1.0" encoding="UTF-8"?>

<!-- generated on Sat Oct 26 13:27:42 2019 by Eclipse SUMO duarouter Version 1.2.0
<configuration xmlns:xsi="http://www.w3.org/2001/XMLSchema-instance" xsi:noNamespaceSchemaLocation="http://sumo.dlr.de/xsd/duarouterConfiguration.xsd">

    <input>
        <net-file value="net.net.xml"/>
        <route-files value="trips.trips.xml"/>
    </input>

    <output>
        <output-file value="ped.rou.xml"/>
        <alternatives-output value="ped.rou.alt.xml"/>
    </output>

    <time>
        <begin value="2.0"/>
        <end value="100.0"/>
    </time>

    <report>
        <no-warnings value="true"/>
        <ignore-errors value="true"/>
        <no-step-log value="true"/>
    </report>

</configuration>
-->

<routes xmlns:xsi="http://www.w3.org/2001/XMLSchema-instance" xsi:noNamespaceSchemaLocation="http://sumo.dlr.de/xsd/routes_file.xsd">
    <person id="p0" depart="2.00">
        <walk edges="-gneE28 gneE28 gneE25"/>
    </person>
    <person id="p1" depart="4.00">
        <walk edges="gneE25 gneE28 -gneE28"/>
    </person>
    <person id="p2" depart="6.00">
        <walk edges="gneE25 gneE26 -gneE26"/>
    </person>
    <person id="p3" depart="8.00">
        <walk edges="-gneE25 -gneE27"/>
    </person>
    <person id="p4" depart="10.00">
        <walk edges="-gneE27 gneE27"/>
    </person>
    <person id="p5" depart="12.00">
        <walk edges="-gneE26 -gneE25 gneE25"/>
    </person>
    <person id="p6" depart="14.00">
        <walk edges="gneE25 -gneE25 gneE27"/>
    </person>
    <person id="p7" depart="16.00">
        <walk edges="gneE28 -gneE27"/>
    </person>
    <person id="p8" depart="18.00">
        <walk edges="gneE25 gneE28"/>
    </person>
    <person id="p9" depart="20.00">
        <walk edges="-gneE25 -gneE27"/>
    </person>
    <person id="p10" depart="22.00">
        <walk edges="gneE25 gneE28 -gneE28"/>
    </person>
    <person id="p11" depart="24.00">
        <walk edges="gneE25 gneE26 -gneE26"/>
    </person>
    <person id="p12" depart="26.00">
        <walk edges="gneE27 -gneE28"/>
    </person>
    <person id="p13" depart="28.00">
        <walk edges="-gneE26 gneE27"/>
    </person>
    <person id="p14" depart="30.00">
        <walk edges="-gneE26 gneE26 -gneE28"/>
    </person>
    <person id="p15" depart="32.00">
        <walk edges="-gneE28 gneE27 -gneE27"/>
    </person>
    <person id="p16" depart="34.00">
        <walk edges="gneE27 -gneE25 gneE25"/>
    </person>
    <person id="p17" depart="36.00">
        <walk edges="gneE25 gneE26"/>
    </person>
    <person id="p18" depart="38.00">
        <walk edges="gneE27 -gneE26"/>
    </person>
    <person id="p19" depart="40.00">
        <walk edges="-gneE26 gneE26 -gneE28"/>
    </person>
    <person id="p20" depart="42.00">
        <walk edges="gneE28 gneE26 -gneE26"/>
    </person>
    <person id="p21" depart="44.00">
        <walk edges="gneE27 -gneE25 gneE25"/>
    </person>
    <person id="p22" depart="46.00">
        <walk edges="-gneE26 gneE26"/>
    </person>
    <person id="p23" depart="48.00">
        <walk edges="-gneE26 -gneE25"/>
    </person>
    <person id="p24" depart="50.00">
        <walk edges="gneE26 -gneE26"/>
    </person>
    <person id="p25" depart="52.00">
        <walk edges="gneE26 -gneE26"/>
    </person>
    <person id="p26" depart="54.00">
        <walk edges="gneE25 -gneE25"/>
    </person>
    <person id="p27" depart="56.00">
        <walk edges="-gneE28 gneE28"/>
    </person>
    <person id="p28" depart="58.00">
        <walk edges="-gneE27 gneE28"/>
    </person>
    <person id="p29" depart="60.00">
        <walk edges="gneE26 -gneE26"/>
    </person>
    <person id="p30" depart="62.00">
        <walk edges="-gneE27 gneE27 -gneE26"/>
    </person>
    <person id="p31" depart="64.00">
        <walk edges="gneE25 gneE28 -gneE28"/>
    </person>
    <person id="p32" depart="66.00">
        <walk edges="gneE26 gneE25"/>
    </person>
    <person id="p33" depart="68.00">
        <walk edges="-gneE27 gneE27 gneE26"/>
    </person>
    <person id="p34" depart="70.00">
        <walk edges="-gneE26 gneE27"/>
    </person>
    <person id="p35" depart="72.00">
        <walk edges="gneE27 -gneE26"/>
    </person>
    <person id="p36" depart="74.00">
        <walk edges="-gneE28 gneE28 gneE25"/>
    </person>
    <person id="p37" depart="76.00">
        <walk edges="-gneE26 -gneE25"/>
    </person>
    <person id="p38" depart="78.00">
        <walk edges="gneE25 gneE28 -gneE28"/>
    </person>
    <person id="p39" depart="80.00">
        <walk edges="gneE28 gneE25"/>
    </person>
    <person id="p40" depart="82.00">
        <walk edges="gneE25 gneE28 -gneE28"/>
    </person>
    <person id="p41" depart="84.00">
        <walk edges="gneE26 gneE27 -gneE27"/>
    </person>
    <person id="p42" depart="86.00">
        <walk edges="gneE26 gneE25"/>
    </person>
    <person id="p43" depart="88.00">
        <walk edges="-gneE26 gneE26 gneE28"/>
    </person>
    <person id="p44" depart="90.00">
        <walk edges="-gneE27 -gneE25"/>
    </person>
    <person id="p45" depart="92.00">
        <walk edges="gneE27 -gneE27"/>
    </person>
    <person id="p46" depart="94.00">
        <walk edges="gneE27 -gneE28"/>
    </person>
    <person id="p47" depart="96.00">
        <walk edges="-gneE26 gneE27"/>
    </person>
    <person id="p48" depart="98.00">
        <walk edges="-gneE28 gneE28"/>
    </person>
</routes>
