<?xml version="1.0" encoding="UTF-8"?>
<!-- generated on 2019-12-11 08:21:05.503581 by $Id$
  options: -n net.net.xml -r ped.rou.xml <doubleminus>verbose <doubleminus>begin=0 <doubleminus>end=1 <doubleminus>period=0.01 <doubleminus>min-distance=100 <doubleminus>pedestrians <doubleminus>prefix p
-->
<routes xmlns:xsi="http://www.w3.org/2001/XMLSchema-instance" xsi:noNamespaceSchemaLocation="http://sumo.dlr.de/xsd/routes_file.xsd">
    <person id="p0" depart="0.00">
        <walk from="gneE27" to="gneE25"/>
    </person>
    <person id="p1" depart="0.01">
        <walk from="-gneE26" to="-gneE28"/>
    </person>
    <person id="p2" depart="0.02">
        <walk from="gneE25" to="-gneE27"/>
    </person>
    <person id="p3" depart="0.03">
        <walk from="-gneE25" to="-gneE27"/>
    </person>
    <person id="p4" depart="0.04">
        <walk from="gneE25" to="gneE28"/>
    </person>
    <person id="p5" depart="0.05">
        <walk from="gneE26" to="-gneE26"/>
    </person>
    <person id="p6" depart="0.06">
        <walk from="-gneE28" to="gneE27"/>
    </person>
    <person id="p7" depart="0.07">
        <walk from="-gneE28" to="-gneE25"/>
    </person>
    <person id="p8" depart="0.08">
        <walk from="-gneE27" to="gneE28"/>
    </person>
    <person id="p9" depart="0.09">
        <walk from="-gneE25" to="-gneE27"/>
    </person>
    <person id="p10" depart="0.10">
        <walk from="gneE25" to="-gneE27"/>
    </person>
    <person id="p11" depart="0.11">
        <walk from="-gneE27" to="-gneE26"/>
    </person>
    <person id="p12" depart="0.12">
        <walk from="gneE27" to="-gneE27"/>
    </person>
    <person id="p13" depart="0.13">
        <walk from="-gneE26" to="gneE28"/>
    </person>
    <person id="p14" depart="0.14">
        <walk from="-gneE28" to="gneE25"/>
    </person>
    <person id="p15" depart="0.15">
        <walk from="-gneE26" to="-gneE25"/>
    </person>
    <person id="p16" depart="0.16">
        <walk from="-gneE27" to="gneE28"/>
    </person>
    <person id="p17" depart="0.17">
        <walk from="gneE26" to="-gneE26"/>
    </person>
    <person id="p18" depart="0.18">
        <walk from="-gneE25" to="-gneE27"/>
    </person>
    <person id="p19" depart="0.19">
        <walk from="-gneE26" to="gneE28"/>
    </person>
    <person id="p20" depart="0.20">
        <walk from="gneE26" to="gneE25"/>
    </person>
    <person id="p21" depart="0.21">
        <walk from="-gneE25" to="-gneE28"/>
    </person>
    <person id="p22" depart="0.22">
        <walk from="gneE27" to="-gneE28"/>
    </person>
    <person id="p23" depart="0.23">
        <walk from="gneE25" to="-gneE25"/>
    </person>
    <person id="p24" depart="0.24">
        <walk from="gneE25" to="-gneE26"/>
    </person>
    <person id="p25" depart="0.25">
        <walk from="-gneE26" to="-gneE27"/>
    </person>
    <person id="p26" depart="0.26">
        <walk from="-gneE27" to="gneE27"/>
    </person>
    <person id="p27" depart="0.27">
        <walk from="-gneE27" to="gneE28"/>
    </person>
    <person id="p28" depart="0.28">
        <walk from="gneE25" to="-gneE25"/>
    </person>
    <person id="p29" depart="0.29">
        <walk from="gneE25" to="-gneE27"/>
    </person>
    <person id="p30" depart="0.30">
        <walk from="gneE25" to="-gneE25"/>
    </person>
    <person id="p31" depart="0.31">
        <walk from="-gneE26" to="-gneE25"/>
    </person>
    <person id="p32" depart="0.32">
        <walk from="gneE25" to="gneE26"/>
    </person>
    <person id="p33" depart="0.33">
        <walk from="-gneE28" to="-gneE25"/>
    </person>
    <person id="p34" depart="0.34">
        <walk from="-gneE26" to="gneE28"/>
    </person>
    <person id="p35" depart="0.35">
        <walk from="gneE28" to="gneE25"/>
    </person>
    <person id="p36" depart="0.36">
        <walk from="-gneE27" to="gneE27"/>
    </person>
    <person id="p37" depart="0.37">
        <walk from="-gneE25" to="gneE25"/>
    </person>
    <person id="p38" depart="0.38">
        <walk from="gneE28" to="-gneE26"/>
    </person>
    <person id="p39" depart="0.39">
        <walk from="gneE25" to="gneE28"/>
    </person>
    <person id="p40" depart="0.40">
        <walk from="gneE28" to="gneE25"/>
    </person>
    <person id="p41" depart="0.41">
        <walk from="-gneE27" to="gneE27"/>
    </person>
    <person id="p42" depart="0.42">
        <walk from="-gneE25" to="-gneE28"/>
    </person>
    <person id="p43" depart="0.43">
        <walk from="-gneE27" to="gneE28"/>
    </person>
    <person id="p44" depart="0.44">
        <walk from="-gneE27" to="-gneE25"/>
    </person>
    <person id="p45" depart="0.45">
        <walk from="gneE25" to="gneE26"/>
    </person>
    <person id="p46" depart="0.46">
        <walk from="-gneE27" to="gneE26"/>
    </person>
    <person id="p47" depart="0.47">
        <walk from="gneE25" to="-gneE27"/>
    </person>
    <person id="p48" depart="0.48">
        <walk from="gneE26" to="gneE25"/>
    </person>
    <person id="p49" depart="0.49">
        <walk from="gneE26" to="-gneE28"/>
    </person>
    <person id="p50" depart="0.50">
        <walk from="-gneE26" to="gneE28"/>
    </person>
    <person id="p51" depart="0.51">
        <walk from="-gneE28" to="gneE27"/>
    </person>
    <person id="p52" depart="0.52">
        <walk from="gneE25" to="gneE27"/>
    </person>
    <person id="p53" depart="0.53">
        <walk from="gneE27" to="-gneE27"/>
    </person>
    <person id="p54" depart="0.54">
        <walk from="-gneE26" to="gneE25"/>
    </person>
    <person id="p55" depart="0.55">
        <walk from="-gneE28" to="gneE27"/>
    </person>
    <person id="p56" depart="0.56">
        <walk from="gneE28" to="gneE25"/>
    </person>
    <person id="p57" depart="0.57">
        <walk from="gneE25" to="gneE28"/>
    </person>
    <person id="p58" depart="0.58">
        <walk from="-gneE26" to="-gneE28"/>
    </person>
    <person id="p59" depart="0.59">
        <walk from="gneE27" to="gneE25"/>
    </person>
    <person id="p60" depart="0.60">
        <walk from="-gneE28" to="gneE26"/>
    </person>
    <person id="p61" depart="0.61">
        <walk from="-gneE25" to="-gneE26"/>
    </person>
    <person id="p62" depart="0.62">
        <walk from="gneE25" to="gneE28"/>
    </person>
    <person id="p63" depart="0.63">
        <walk from="gneE28" to="-gneE26"/>
    </person>
    <person id="p64" depart="0.64">
        <walk from="-gneE28" to="gneE25"/>
    </person>
    <person id="p65" depart="0.65">
        <walk from="-gneE26" to="gneE28"/>
    </person>
    <person id="p66" depart="0.66">
        <walk from="gneE25" to="-gneE26"/>
    </person>
    <person id="p67" depart="0.67">
        <walk from="-gneE28" to="-gneE27"/>
    </person>
    <person id="p68" depart="0.68">
        <walk from="-gneE28" to="-gneE27"/>
    </person>
    <person id="p69" depart="0.69">
        <walk from="-gneE27" to="gneE28"/>
    </person>
    <person id="p70" depart="0.70">
        <walk from="gneE27" to="-gneE26"/>
    </person>
    <person id="p71" depart="0.71">
        <walk from="gneE28" to="gneE25"/>
    </person>
    <person id="p72" depart="0.72">
        <walk from="gneE26" to="-gneE26"/>
    </person>
    <person id="p73" depart="0.73">
        <walk from="-gneE26" to="-gneE27"/>
    </person>
    <person id="p74" depart="0.74">
        <walk from="gneE27" to="-gneE26"/>
    </person>
    <person id="p75" depart="0.75">
        <walk from="gneE27" to="-gneE27"/>
    </person>
    <person id="p76" depart="0.76">
        <walk from="gneE26" to="-gneE27"/>
    </person>
    <person id="p77" depart="0.77">
        <walk from="gneE27" to="gneE25"/>
    </person>
    <person id="p78" depart="0.78">
        <walk from="-gneE26" to="-gneE27"/>
    </person>
    <person id="p79" depart="0.79">
        <walk from="gneE25" to="-gneE25"/>
    </person>
    <person id="p80" depart="0.80">
        <walk from="-gneE26" to="-gneE25"/>
    </person>
    <person id="p81" depart="0.81">
        <walk from="gneE26" to="gneE25"/>
    </person>
    <person id="p82" depart="0.82">
        <walk from="-gneE28" to="-gneE27"/>
    </person>
    <person id="p83" depart="0.83">
        <walk from="-gneE27" to="gneE25"/>
    </person>
    <person id="p84" depart="0.84">
        <walk from="-gneE26" to="gneE26"/>
    </person>
    <person id="p85" depart="0.85">
        <walk from="-gneE27" to="gneE28"/>
    </person>
    <person id="p86" depart="0.86">
        <walk from="-gneE27" to="gneE28"/>
    </person>
    <person id="p87" depart="0.87">
        <walk from="gneE25" to="gneE26"/>
    </person>
    <person id="p88" depart="0.88">
        <walk from="gneE28" to="-gneE26"/>
    </person>
    <person id="p89" depart="0.89">
        <walk from="-gneE26" to="gneE28"/>
    </person>
    <person id="p90" depart="0.90">
        <walk from="gneE27" to="-gneE28"/>
    </person>
    <person id="p91" depart="0.91">
        <walk from="gneE25" to="gneE26"/>
    </person>
    <person id="p92" depart="0.92">
        <walk from="-gneE28" to="-gneE26"/>
    </person>
    <person id="p93" depart="0.93">
        <walk from="-gneE27" to="gneE26"/>
    </person>
    <person id="p94" depart="0.94">
        <walk from="gneE28" to="-gneE27"/>
    </person>
    <person id="p95" depart="0.95">
        <walk from="-gneE26" to="gneE27"/>
    </person>
    <person id="p96" depart="0.96">
        <walk from="-gneE27" to="gneE28"/>
    </person>
    <person id="p97" depart="0.97">
        <walk from="gneE25" to="-gneE26"/>
    </person>
    <person id="p98" depart="0.98">
        <walk from="-gneE28" to="-gneE26"/>
    </person>
    <person id="p99" depart="0.99">
        <walk from="gneE27" to="-gneE26"/>
    </person>
</routes>
